
This summary information was generated by AeroDyn on 30-Sep-2024 at 16:57:25.

======  General Options  ============================================================================
            1  WakeMod        - Type of wake/induction model: Blade-Element/Momentum Theory
            2  AFAeroMod      - Type of blade airfoil aerodynamics model: Beddoes-Leishman unsteady model
            1  TwrPotent      - Type of tower influence on wind based on potential flow around the tower: baseline potential flow
            0  TwrShadow      - Type of tower influence on wind based on downstream tower shadow: none
            T  TwrAero        - Calculate tower aerodynamic loads? Yes
            F  CavitCheck     - Perform cavitation check? No
            F  Buoyancy       - Include buoyancy effects? No
======  Blade-Element/Momentum Theory Options  ======================================================
            2  SkewMod        - Type of skewed-wake correction model: Pitt/Peters
            T  TipLoss        - Use the Prandtl tip-loss model? Yes
            T  HubLoss        - Use the Prandtl hub-loss model? Yes
            T  TanInd         - Include tangential induction in BEMT calculations? Yes
            F  AIDrag         - Include the drag term in the axial-induction calculation? No
            F  TIDrag         - Include the drag term in the tangential-induction calculation? No
   5.0000E-05  IndToler       - Convergence tolerance for BEM induction factors (radians)
======  Beddoes-Leishman Unsteady Airfoil Aerodynamics Options  =====================================
            3  UAMod          - Unsteady Aero Model: Minnema/Pierce variant (changes in Cc and Cm)
            T  FLookup        - Use a lookup for f'? Yes
======  Outputs  ====================================================================================
            9  NBlOuts        - Number of blade nodes selected for output
           19  NumBlNds       - Number of blade nodes in the analysis
               Blade nodes selected for output:  Output node  Analysis node
                                                 -----------  -------------
                                                           1              1
                                                           2              3
                                                           3              5
                                                           4              7
                                                           5              9
                                                           6             11
                                                           7             13
                                                           8             16
                                                           9             19
            9  NTwOuts        - Number of tower nodes selected for output
           11  NumTwrNds      - Number of tower nodes in the analysis
               Tower nodes selected for output:  Output node  Analysis node
                                                 -----------  -------------
                                                           1              3
                                                           2              4
                                                           3              5
                                                           4              6
                                                           5              7
                                                           6              8
                                                           7              9
                                                           8             10
                                                           9             11

               Requested Output Channels:
                Col   Parameter            Units               
                ---   ---------------      ---------------     
                  0   Time                 (s)                 
                  1   RtFldFxg             (N)                 
                  2   RtFldFyi             (N)                 
                  3   B1FldFxi             (N)                 
                  4   B1FldFyi             (N)                 
                  5   B1FldMxi             (N-m)               
                  6   B1FldMyi             (N-m)               
                  7   B2FldFxi             (N)                 
                  8   B2FldFyi             (N)                 
                  9   B2FldMxi             (N-m)               
                 10   B2FldMyi             (N-m)               
                 11   B3FldFxi             (N)                 
                 12   B3FldFyi             (N)                 
                 13   B3FldMxi             (N-m)               
                 14   B3FldMyi             (N-m)               
                 15   B1N1Fl               (N/m)               
                 16   B1N2Fl               (N/m)               
                 17   B1N3Fl               (N/m)               
                 18   B1N4Fl               (N/m)               
                 19   B1N5Fl               (N/m)               
                 20   B1N6Fl               (N/m)               
                 21   B1N7Fl               (N/m)               
                 22   B1N8Fl               (N/m)               
                 23   B1N9Fl               (N/m)               
                 24   B2N1Fl               (N/m)               
                 25   B2N2Fl               (N/m)               
                 26   B2N3Fl               (N/m)               
                 27   B2N4Fl               (N/m)               
                 28   B2N5Fl               (N/m)               
                 29   B2N6Fl               (N/m)               
                 30   B2N7Fl               (N/m)               
                 31   B2N8Fl               (N/m)               
                 32   B2N9Fl               (N/m)               
                 33   B3N1Fl               (N/m)               
                 34   B3N2Fl               (N/m)               
                 35   B3N3Fl               (N/m)               
                 36   B3N4Fl               (N/m)               
                 37   B3N5Fl               (N/m)               
                 38   B3N6Fl               (N/m)               
                 39   B3N7Fl               (N/m)               
                 40   B3N8Fl               (N/m)               
                 41   B3N9Fl               (N/m)               
                 42   B1N1Fd               (N/m)               
                 43   B1N2Fd               (N/m)               
                 44   B1N3Fd               (N/m)               
                 45   B1N4Fd               (N/m)               
                 46   B1N5Fd               (N/m)               
                 47   B1N6Fd               (N/m)               
                 48   B1N7Fd               (N/m)               
                 49   B1N8Fd               (N/m)               
                 50   B1N9Fd               (N/m)               
                 51   B2N1Fd               (N/m)               
                 52   B2N2Fd               (N/m)               
                 53   B2N3Fd               (N/m)               
                 54   B2N4Fd               (N/m)               
                 55   B2N5Fd               (N/m)               
                 56   B2N6Fd               (N/m)               
                 57   B2N7Fd               (N/m)               
                 58   B2N8Fd               (N/m)               
                 59   B2N9Fd               (N/m)               
                 60   B3N1Fd               (N/m)               
                 61   B3N2Fd               (N/m)               
                 62   B3N3Fd               (N/m)               
                 63   B3N4Fd               (N/m)               
                 64   B3N5Fd               (N/m)               
                 65   B3N6Fd               (N/m)               
                 66   B3N7Fd               (N/m)               
                 67   B3N8Fd               (N/m)               
                 68   B3N9Fd               (N/m)               
                 69   B1N1Alpha            (deg)               
                 70   B1N2Alpha            (deg)               
                 71   B1N3Alpha            (deg)               
                 72   B1N4Alpha            (deg)               
                 73   B1N5Alpha            (deg)               
                 74   B1N6Alpha            (deg)               
                 75   B1N7Alpha            (deg)               
                 76   B1N8Alpha            (deg)               
                 77   B1N9Alpha            (deg)               
                 78   B2N1Alpha            (deg)               
                 79   B2N2Alpha            (deg)               
                 80   B2N3Alpha            (deg)               
                 81   B2N4Alpha            (deg)               
                 82   B2N5Alpha            (deg)               
                 83   B2N6Alpha            (deg)               
                 84   B2N7Alpha            (deg)               
                 85   B2N8Alpha            (deg)               
                 86   B2N9Alpha            (deg)               
                 87   B3N1Alpha            (deg)               
                 88   B3N2Alpha            (deg)               
                 89   B3N3Alpha            (deg)               
                 90   B3N4Alpha            (deg)               
                 91   B3N5Alpha            (deg)               
                 92   B3N6Alpha            (deg)               
                 93   B3N7Alpha            (deg)               
                 94   B3N8Alpha            (deg)               
                 95   B3N9Alpha            (deg)               
                 96   TwN1Fdx              (N/m)               
                 97   TwN2Fdx              (N/m)               
                 98   TwN3Fdx              (N/m)               
                 99   TwN4Fdx              (N/m)               
                100   TwN5Fdx              (N/m)               
                101   TwN6Fdx              (N/m)               
                102   TwN7Fdx              (N/m)               
                103   TwN8Fdx              (N/m)               
                104   TwN9Fdx              (N/m)               


               Requested Output Channels at each blade station:
                Col   Parameter            Units               
                ---   ---------------      ---------------     


Buoyancy parameters:

Hub volume (m^3):           0.000
Nacelle volume (m^3):       0.000
Total blade volume (m^3):   0.000
Tower volume (m^3):         0.000
