
This summary information was generated by ElastoDyn on 30-Sep-2024 at 16:57:25.


Turbine features:

            Upwind, 3-bladed rotor with rigid hub.
            The model has 22 of 24 DOFs active (enabled) at start-up.
 Enabled    Platform horizontal surge translation DOF 
 Enabled    Platform horizontal sway translation DOF 
 Enabled    Platform vertical heave translation DOF 
 Enabled    Platform roll tilt rotation DOF 
 Enabled    Platform pitch tilt rotation DOF 
 Enabled    Platform yaw rotation DOF 
 Enabled    1st tower fore-aft bending mode DOF 
 Enabled    1st tower side-to-side bending mode DOF 
 Enabled    2nd tower fore-aft bending mode DOF 
 Enabled    2nd tower side-to-side bending mode DOF 
 Enabled    Nacelle yaw DOF 
 Disabled   Rotor-furl DOF 
 Enabled    Variable speed generator DOF 
 Enabled    Drivetrain rotational-flexibility DOF 
 Disabled   Tail-furl DOF 
 Enabled    1st flapwise bending-mode DOF of blade 1 
 Enabled    1st edgewise bending-mode DOF of blade 1 
 Enabled    2nd flapwise bending-mode DOF of blade 1 
 Enabled    1st flapwise bending-mode DOF of blade 2 
 Enabled    1st edgewise bending-mode DOF of blade 2 
 Enabled    2nd flapwise bending-mode DOF of blade 2 
 Enabled    1st flapwise bending-mode DOF of blade 3 
 Enabled    1st edgewise bending-mode DOF of blade 3 
 Enabled    2nd flapwise bending-mode DOF of blade 3 


Time steps:

    Structural            (s)        0.00500000


Some calculated parameters:

    Hub-Height            (m)            90.000
    Flexible Tower Length (m)            77.600
    Flexible Blade Length (m)            61.500


Rotor mass properties:

    Rotor Mass            (kg)       109389.852
    Rotor Inertia         (kg-m^2) 38677056.000
                                        Blade 1      Blade 2      Blade 3
                                        -------      -------      -------
    Mass                  (kg)        17536.617    17536.617    17536.617
    Second Mass Moment    (kg-m^2) 11752357.000 11752357.000 11752357.000
    First Mass Moment     (kg-m)     362132.781   362132.781   362132.781
    Center of Mass        (m)            20.650       20.650       20.650


Additional mass properties:

    Tower-top Mass        (kg)       349389.844
    Tower Mass            (kg)       249718.000
    Platform Mass         (kg)      3852180.000
    Mass Incl. Platform   (kg)      4451288.000


Interpolated tower properties:

Node  TwFract   HNodes  DHNodes  TMassDen    FAStiff    SSStiff
 (-)      (-)      (m)      (m)    (kg/m)     (Nm^2)     (Nm^2)
   1    0.025    1.940    3.880  4586.570  5.823E+11  5.823E+11
   2    0.075    5.820    3.880  4425.710  5.392E+11  5.392E+11
   3    0.125    9.700    3.880  4267.650  4.985E+11  4.985E+11
   4    0.175   13.580    3.880  4112.390  4.601E+11  4.601E+11
   5    0.225   17.460    3.880  3959.930  4.239E+11  4.239E+11
   6    0.275   21.340    3.880  3810.270  3.900E+11  3.900E+11
   7    0.325   25.220    3.880  3663.410  3.581E+11  3.581E+11
   8    0.375   29.100    3.880  3519.350  3.282E+11  3.282E+11
   9    0.425   32.980    3.880  3378.090  3.002E+11  3.002E+11
  10    0.475   36.860    3.880  3239.630  2.740E+11  2.740E+11
  11    0.525   40.740    3.880  3103.972  2.495E+11  2.495E+11
  12    0.575   44.620    3.880  2971.117  2.267E+11  2.267E+11
  13    0.625   48.500    3.880  2841.062  2.055E+11  2.055E+11
  14    0.675   52.380    3.880  2713.807  1.859E+11  1.859E+11
  15    0.725   56.260    3.880  2589.355  1.676E+11  1.676E+11
  16    0.775   60.140    3.880  2467.705  1.507E+11  1.507E+11
  17    0.825   64.020    3.880  2348.852  1.351E+11  1.351E+11
  18    0.875   67.900    3.880  2232.797  1.208E+11  1.208E+11
  19    0.925   71.780    3.880  2119.545  1.076E+11  1.076E+11
  20    0.975   75.660    3.880  2009.095  9.552E+10  9.552E+10


Interpolated blade 1 properties:

Node  BlFract   RNodes  DRNodes PitchAxis  StrcTwst  BMassDen    FlpStff    EdgStff
 (-)      (-)      (m)      (m)       (-)     (deg)    (kg/m)     (Nm^2)     (Nm^2)
   1    0.029    3.309    3.618     0.253    13.308   787.554  1.823E+10  1.952E+10
   2    0.088    6.926    3.618     0.294    13.308   464.487  7.021E+09  9.977E+09
   3    0.147   10.544    3.618     0.339    13.308   414.917  4.944E+09  6.990E+09
   4    0.206   14.162    3.618     0.375    12.545   412.664  3.178E+09  6.695E+09
   5    0.265   17.779    3.618     0.375    10.770   361.957  2.263E+09  4.796E+09
   6    0.324   21.397    3.618     0.375     9.757   346.452  1.862E+09  4.283E+09
   7    0.382   25.015    3.618     0.375     8.731   330.982  1.440E+09  3.835E+09
   8    0.441   28.632    3.618     0.375     7.647   304.395  9.968E+08  3.304E+09
   9    0.500   32.250    3.618     0.375     6.549   272.375  6.410E+08  2.685E+09
  10    0.559   35.868    3.618     0.375     5.498   250.787  4.010E+08  2.292E+09
  11    0.618   39.485    3.618     0.375     4.462   211.669  2.468E+08  1.610E+09
  12    0.676   43.103    3.618     0.375     3.482   177.049  1.409E+08  1.225E+09
  13    0.735   46.721    3.618     0.375     2.693   153.160  9.890E+07  9.067E+08
  14    0.794   50.338    3.618     0.375     1.993   128.005  7.145E+07  6.486E+08
  15    0.853   53.956    3.618     0.375     1.292   102.116  4.819E+07  4.472E+08
  16    0.912   57.574    3.618     0.375     0.598    77.547  3.095E+07  3.109E+08
  17    0.971   61.191    3.618     0.375     0.141    51.403  1.013E+07  1.019E+08


Interpolated blade 2 properties:

Node  BlFract   RNodes  DRNodes PitchAxis  StrcTwst  BMassDen    FlpStff    EdgStff
 (-)      (-)      (m)      (m)       (-)     (deg)    (kg/m)     (Nm^2)     (Nm^2)
   1    0.029    3.309    3.618     0.253    13.308   787.554  1.823E+10  1.952E+10
   2    0.088    6.926    3.618     0.294    13.308   464.487  7.021E+09  9.977E+09
   3    0.147   10.544    3.618     0.339    13.308   414.917  4.944E+09  6.990E+09
   4    0.206   14.162    3.618     0.375    12.545   412.664  3.178E+09  6.695E+09
   5    0.265   17.779    3.618     0.375    10.770   361.957  2.263E+09  4.796E+09
   6    0.324   21.397    3.618     0.375     9.757   346.452  1.862E+09  4.283E+09
   7    0.382   25.015    3.618     0.375     8.731   330.982  1.440E+09  3.835E+09
   8    0.441   28.632    3.618     0.375     7.647   304.395  9.968E+08  3.304E+09
   9    0.500   32.250    3.618     0.375     6.549   272.375  6.410E+08  2.685E+09
  10    0.559   35.868    3.618     0.375     5.498   250.787  4.010E+08  2.292E+09
  11    0.618   39.485    3.618     0.375     4.462   211.669  2.468E+08  1.610E+09
  12    0.676   43.103    3.618     0.375     3.482   177.049  1.409E+08  1.225E+09
  13    0.735   46.721    3.618     0.375     2.693   153.160  9.890E+07  9.067E+08
  14    0.794   50.338    3.618     0.375     1.993   128.005  7.145E+07  6.486E+08
  15    0.853   53.956    3.618     0.375     1.292   102.116  4.819E+07  4.472E+08
  16    0.912   57.574    3.618     0.375     0.598    77.547  3.095E+07  3.109E+08
  17    0.971   61.191    3.618     0.375     0.141    51.403  1.013E+07  1.019E+08


Interpolated blade 3 properties:

Node  BlFract   RNodes  DRNodes PitchAxis  StrcTwst  BMassDen    FlpStff    EdgStff
 (-)      (-)      (m)      (m)       (-)     (deg)    (kg/m)     (Nm^2)     (Nm^2)
   1    0.029    3.309    3.618     0.253    13.308   787.554  1.823E+10  1.952E+10
   2    0.088    6.926    3.618     0.294    13.308   464.487  7.021E+09  9.977E+09
   3    0.147   10.544    3.618     0.339    13.308   414.917  4.944E+09  6.990E+09
   4    0.206   14.162    3.618     0.375    12.545   412.664  3.178E+09  6.695E+09
   5    0.265   17.779    3.618     0.375    10.770   361.957  2.263E+09  4.796E+09
   6    0.324   21.397    3.618     0.375     9.757   346.452  1.862E+09  4.283E+09
   7    0.382   25.015    3.618     0.375     8.731   330.982  1.440E+09  3.835E+09
   8    0.441   28.632    3.618     0.375     7.647   304.395  9.968E+08  3.304E+09
   9    0.500   32.250    3.618     0.375     6.549   272.375  6.410E+08  2.685E+09
  10    0.559   35.868    3.618     0.375     5.498   250.787  4.010E+08  2.292E+09
  11    0.618   39.485    3.618     0.375     4.462   211.669  2.468E+08  1.610E+09
  12    0.676   43.103    3.618     0.375     3.482   177.049  1.409E+08  1.225E+09
  13    0.735   46.721    3.618     0.375     2.693   153.160  9.890E+07  9.067E+08
  14    0.794   50.338    3.618     0.375     1.993   128.005  7.145E+07  6.486E+08
  15    0.853   53.956    3.618     0.375     1.292   102.116  4.819E+07  4.472E+08
  16    0.912   57.574    3.618     0.375     0.598    77.547  3.095E+07  3.109E+08
  17    0.971   61.191    3.618     0.375     0.141    51.403  1.013E+07  1.019E+08


Requested Outputs:


 Col   Parameter            Units               
 ---   ---------------      ---------------     
   0   Time                 (s)                 
   1   RootMyb1             (kN-m)              
   2   RootMyb2             (kN-m)              
   3   RootMyb3             (kN-m)              
   4   Q_Sg                 (m)                 
   5   Q_Sw                 (m)                 
   6   Q_Hv                 (m)                 
   7   Q_R                  (rad)               
   8   Q_P                  (rad)               
   9   Q_Y                  (rad)               
  10   Q_TFA1               (m)                 
  11   Q_TSS1               (m)                 
  12   Q_TFA2               (m)                 
  13   Q_TSS2               (m)                 
  14   Q_Yaw                (rad)               
  15   Q_GeAz               (rad)               
  16   Q_DrTr               (rad)               
  17   Q_B1F1               (m)                 
  18   Q_B1E1               (m)                 
  19   Q_B1F2               (m)                 
  20   Q_B2F1               (m)                 
  21   Q_B2E1               (m)                 
  22   Q_B2F2               (m)                 
  23   Q_B3F1               (m)                 
  24   Q_B3E1               (m)                 
  25   Q_B3F2               (m)                 
  26   QD_Sg                (m/s)               
  27   QD_Sw                (m/s)               
  28   QD_Hv                (m/s)               
  29   QD_R                 (rad/s)             
  30   QD_P                 (rad/s)             
  31   QD_Y                 (rad/s)             
  32   QD_TFA1              (m/s)               
  33   QD_TSS1              (m/s)               
  34   QD_TFA2              (m/s)               
  35   QD_TSS2              (m/s)               
  36   QD_Yaw               (rad/s)             
  37   QD_GeAz              (rad/s)             
  38   QD_DrTr              (rad/s)             
  39   QD_B1F1              (m/s)               
  40   QD_B1E1              (m/s)               
  41   QD_B1F2              (m/s)               
  42   QD_B2F1              (m/s)               
  43   QD_B2E1              (m/s)               
  44   QD_B2F2              (m/s)               
  45   QD_B3F1              (m/s)               
  46   QD_B3E1              (m/s)               
  47   QD_B3F2              (m/s)               
  48   Azimuth              (deg)               
  49   RotSpeed             (rpm)               
  50   GenSpeed             (rpm)               
  51   OoPDefl1             (m)                 
  52   IPDefl1              (m)                 
  53   TwstDefl1            (deg)               
  54   BldPitch1            (deg)               
  55   BldPitch2            (deg)               
  56   BldPitch3            (deg)               
  57   YawBrTAxp            (m/s^2)             
  58   YawBrTAyp            (m/s^2)             
  59   YawBrRAxp            (deg/s^2)           
  60   RotTorq              (kN-m)              
  61   RotThrust            (kN)                
  62   TTDspFA              (m)                 
  63   TTDspSS              (m)                 
  64   TTDspTwst            (deg)               
  65   PtfmSurge            (m)                 
  66   PtfmSway             (m)                 
  67   PtfmHeave            (m)                 
  68   PtfmRoll             (deg)               
  69   PtfmPitch            (deg)               
  70   PtfmYaw              (deg)               
  71   PtfmRVxi             (deg/s)             
  72   PtfmRVyi             (deg/s)             
  73   PtfmRVzi             (deg/s)             
  74   PtfmRAxi             (deg/s^2)           
  75   PtfmRAyi             (deg/s^2)           
  76   PtfmRAzi             (deg/s^2)           
  77   RootFxc1             (kN)                
  78   RootFyc1             (kN)                
  79   RootFzc1             (kN)                
  80   RootMxc1             (kN-m)              
  81   RootMyc1             (kN-m)              
  82   RootMzc1             (kN-m)              
  83   LSSGagMya            (kN-m)              
  84   LSSGagMza            (kN-m)              
  85   YawBrFxp             (kN)                
  86   YawBrFyp             (kN)                
  87   YawBrFzp             (kN)                
  88   YawBrMxp             (kN-m)              
  89   YawBrMyp             (kN-m)              
  90   YawBrMzp             (kN-m)              
  91   TwrBsFxt             (kN)                
  92   TwrBsFyt             (kN)                
  93   TwrBsFzt             (kN)                
  94   TwrBsMxt             (kN-m)              
  95   TwrBsMyt             (kN-m)              
  96   TwrBsMzt             (kN-m)              
  97   NcIMUTAxs            (m/s^2)             
  98   NcIMUTAys            (m/s^2)             
  99   NcIMUTAzs            (m/s^2)             
 100   QD2_B1E1             (m/s^2)             
 101   QD2_B2E1             (m/s^2)             
 102   QD2_B3E1             (m/s^2)             
 103   QD2_B1F1             (m/s^2)             
 104   QD2_B2F1             (m/s^2)             
 105   QD2_B3F1             (m/s^2)             
 106   QD2_B1F2             (m/s^2)             
 107   QD2_B2F2             (m/s^2)             
 108   QD2_B3F2             (m/s^2)             
 109   QD2_Teet             INVALID             
 110   QD2_DrTr             (rad/s^2)           
 111   QD2_GeAz             (rad/s^2)           
 112   QD2_RFrl             (rad/s^2)           
 113   QD2_TFrl             (rad/s^2)           
 114   QD2_Yaw              (rad/s^2)           
 115   QD2_TFA1             (m/s^2)             
 116   QD2_TSS1             (m/s^2)             
 117   QD2_TFA2             (m/s^2)             
 118   QD2_TSS2             (m/s^2)             
 119   QD2_Sg               (m/s^2)             
 120   QD2_Sw               (m/s^2)             
 121   QD2_Hv               (m/s^2)             
 122   QD2_R                (rad/s^2)           
 123   QD2_P                (rad/s^2)           
 124   QD2_Y                (rad/s^2)           


  Requested Output Channels at each blade station:
 Col   Parameter            Units               
 ---   ---------------      ---------------     
