
This summary information was generated by ElastoDyn on 09-Sep-2024 at 13:24:48.


Turbine features:

            Upwind, 3-bladed rotor with rigid hub.
            The model has 15 of 24 DOFs active (enabled) at start-up.
 Disabled   Platform horizontal surge translation DOF 
 Disabled   Platform horizontal sway translation DOF 
 Disabled   Platform vertical heave translation DOF 
 Disabled   Platform roll tilt rotation DOF 
 Disabled   Platform pitch tilt rotation DOF 
 Disabled   Platform yaw rotation DOF 
 Enabled    1st tower fore-aft bending mode DOF 
 Enabled    1st tower side-to-side bending mode DOF 
 Enabled    2nd tower fore-aft bending mode DOF 
 Enabled    2nd tower side-to-side bending mode DOF 
 Disabled   Nacelle yaw DOF 
 Disabled   Rotor-furl DOF 
 Enabled    Variable speed generator DOF 
 Enabled    Drivetrain rotational-flexibility DOF 
 Disabled   Tail-furl DOF 
 Enabled    1st flapwise bending-mode DOF of blade 1 
 Enabled    1st edgewise bending-mode DOF of blade 1 
 Enabled    2nd flapwise bending-mode DOF of blade 1 
 Enabled    1st flapwise bending-mode DOF of blade 2 
 Enabled    1st edgewise bending-mode DOF of blade 2 
 Enabled    2nd flapwise bending-mode DOF of blade 2 
 Enabled    1st flapwise bending-mode DOF of blade 3 
 Enabled    1st edgewise bending-mode DOF of blade 3 
 Enabled    2nd flapwise bending-mode DOF of blade 3 


Time steps:

    Structural            (s)        0.01250000


Some calculated parameters:

    Hub-Height            (m)            90.000
    Flexible Tower Length (m)            77.600
    Flexible Blade Length (m)            61.500


Rotor mass properties:

    Rotor Mass            (kg)       109389.852
    Rotor Inertia         (kg-m^2) 38677056.000
                                        Blade 1      Blade 2      Blade 3
                                        -------      -------      -------
    Mass                  (kg)        17536.617    17536.617    17536.617
    Second Mass Moment    (kg-m^2) 11752357.000 11752357.000 11752357.000
    First Mass Moment     (kg-m)     362132.781   362132.781   362132.781
    Center of Mass        (m)            20.650       20.650       20.650


Additional mass properties:

    Tower-top Mass        (kg)       349389.844
    Tower Mass            (kg)       307795.812
    Platform Mass         (kg)            0.000
    Mass Incl. Platform   (kg)       657185.625


Interpolated tower properties:

Node  TwFract   HNodes  DHNodes  TMassDen    FAStiff    SSStiff
 (-)      (-)      (m)      (m)    (kg/m)     (Nm^2)     (Nm^2)
   1    0.025    1.940    3.880  5501.260  5.945E+11  5.945E+11
   2    0.075    5.820    3.880  5322.040  5.547E+11  5.547E+11
   3    0.125    9.700    3.880  5145.763  5.169E+11  5.169E+11
   4    0.175   13.580    3.880  4972.427  4.812E+11  4.812E+11
   5    0.225   17.460    3.880  4802.038  4.472E+11  4.472E+11
   6    0.275   21.340    3.880  4634.593  4.152E+11  4.152E+11
   7    0.325   25.220    3.880  4470.090  3.848E+11  3.848E+11
   8    0.375   29.100    3.880  4308.530  3.562E+11  3.562E+11
   9    0.425   32.980    3.880  4149.915  3.292E+11  3.292E+11
  10    0.475   36.860    3.880  3994.245  3.037E+11  3.037E+11
  11    0.525   40.740    3.880  3841.515  2.798E+11  2.798E+11
  12    0.575   44.620    3.880  3691.725  2.573E+11  2.573E+11
  13    0.625   48.500    3.880  3544.880  2.361E+11  2.361E+11
  14    0.675   52.380    3.880  3400.980  2.163E+11  2.163E+11
  15    0.725   56.260    3.880  3260.025  1.978E+11  1.978E+11
  16    0.775   60.140    3.880  3122.015  1.805E+11  1.805E+11
  17    0.825   64.020    3.880  2986.945  1.643E+11  1.643E+11
  18    0.875   67.900    3.880  2854.815  1.493E+11  1.493E+11
  19    0.925   71.780    3.880  2725.630  1.353E+11  1.353E+11
  20    0.975   75.660    3.880  2599.390  1.223E+11  1.223E+11


Interpolated blade 1 properties:

Node  BlFract   RNodes  DRNodes PitchAxis  StrcTwst  BMassDen    FlpStff    EdgStff
 (-)      (-)      (m)      (m)       (-)     (deg)    (kg/m)     (Nm^2)     (Nm^2)
   1    0.029    3.309    3.618     0.253    13.308   787.554  1.823E+10  1.952E+10
   2    0.088    6.926    3.618     0.294    13.308   464.487  7.021E+09  9.977E+09
   3    0.147   10.544    3.618     0.339    13.308   414.917  4.944E+09  6.990E+09
   4    0.206   14.162    3.618     0.375    12.545   412.664  3.178E+09  6.695E+09
   5    0.265   17.779    3.618     0.375    10.770   361.957  2.263E+09  4.796E+09
   6    0.324   21.397    3.618     0.375     9.757   346.452  1.862E+09  4.283E+09
   7    0.382   25.015    3.618     0.375     8.731   330.982  1.440E+09  3.835E+09
   8    0.441   28.632    3.618     0.375     7.647   304.395  9.968E+08  3.304E+09
   9    0.500   32.250    3.618     0.375     6.549   272.375  6.410E+08  2.685E+09
  10    0.559   35.868    3.618     0.375     5.498   250.787  4.010E+08  2.292E+09
  11    0.618   39.485    3.618     0.375     4.462   211.669  2.468E+08  1.610E+09
  12    0.676   43.103    3.618     0.375     3.482   177.049  1.409E+08  1.225E+09
  13    0.735   46.721    3.618     0.375     2.693   153.160  9.890E+07  9.067E+08
  14    0.794   50.338    3.618     0.375     1.993   128.005  7.145E+07  6.486E+08
  15    0.853   53.956    3.618     0.375     1.292   102.116  4.819E+07  4.472E+08
  16    0.912   57.574    3.618     0.375     0.598    77.547  3.095E+07  3.109E+08
  17    0.971   61.191    3.618     0.375     0.141    51.403  1.013E+07  1.019E+08


Interpolated blade 2 properties:

Node  BlFract   RNodes  DRNodes PitchAxis  StrcTwst  BMassDen    FlpStff    EdgStff
 (-)      (-)      (m)      (m)       (-)     (deg)    (kg/m)     (Nm^2)     (Nm^2)
   1    0.029    3.309    3.618     0.253    13.308   787.554  1.823E+10  1.952E+10
   2    0.088    6.926    3.618     0.294    13.308   464.487  7.021E+09  9.977E+09
   3    0.147   10.544    3.618     0.339    13.308   414.917  4.944E+09  6.990E+09
   4    0.206   14.162    3.618     0.375    12.545   412.664  3.178E+09  6.695E+09
   5    0.265   17.779    3.618     0.375    10.770   361.957  2.263E+09  4.796E+09
   6    0.324   21.397    3.618     0.375     9.757   346.452  1.862E+09  4.283E+09
   7    0.382   25.015    3.618     0.375     8.731   330.982  1.440E+09  3.835E+09
   8    0.441   28.632    3.618     0.375     7.647   304.395  9.968E+08  3.304E+09
   9    0.500   32.250    3.618     0.375     6.549   272.375  6.410E+08  2.685E+09
  10    0.559   35.868    3.618     0.375     5.498   250.787  4.010E+08  2.292E+09
  11    0.618   39.485    3.618     0.375     4.462   211.669  2.468E+08  1.610E+09
  12    0.676   43.103    3.618     0.375     3.482   177.049  1.409E+08  1.225E+09
  13    0.735   46.721    3.618     0.375     2.693   153.160  9.890E+07  9.067E+08
  14    0.794   50.338    3.618     0.375     1.993   128.005  7.145E+07  6.486E+08
  15    0.853   53.956    3.618     0.375     1.292   102.116  4.819E+07  4.472E+08
  16    0.912   57.574    3.618     0.375     0.598    77.547  3.095E+07  3.109E+08
  17    0.971   61.191    3.618     0.375     0.141    51.403  1.013E+07  1.019E+08


Interpolated blade 3 properties:

Node  BlFract   RNodes  DRNodes PitchAxis  StrcTwst  BMassDen    FlpStff    EdgStff
 (-)      (-)      (m)      (m)       (-)     (deg)    (kg/m)     (Nm^2)     (Nm^2)
   1    0.029    3.309    3.618     0.253    13.308   787.554  1.823E+10  1.952E+10
   2    0.088    6.926    3.618     0.294    13.308   464.487  7.021E+09  9.977E+09
   3    0.147   10.544    3.618     0.339    13.308   414.917  4.944E+09  6.990E+09
   4    0.206   14.162    3.618     0.375    12.545   412.664  3.178E+09  6.695E+09
   5    0.265   17.779    3.618     0.375    10.770   361.957  2.263E+09  4.796E+09
   6    0.324   21.397    3.618     0.375     9.757   346.452  1.862E+09  4.283E+09
   7    0.382   25.015    3.618     0.375     8.731   330.982  1.440E+09  3.835E+09
   8    0.441   28.632    3.618     0.375     7.647   304.395  9.968E+08  3.304E+09
   9    0.500   32.250    3.618     0.375     6.549   272.375  6.410E+08  2.685E+09
  10    0.559   35.868    3.618     0.375     5.498   250.787  4.010E+08  2.292E+09
  11    0.618   39.485    3.618     0.375     4.462   211.669  2.468E+08  1.610E+09
  12    0.676   43.103    3.618     0.375     3.482   177.049  1.409E+08  1.225E+09
  13    0.735   46.721    3.618     0.375     2.693   153.160  9.890E+07  9.067E+08
  14    0.794   50.338    3.618     0.375     1.993   128.005  7.145E+07  6.486E+08
  15    0.853   53.956    3.618     0.375     1.292   102.116  4.819E+07  4.472E+08
  16    0.912   57.574    3.618     0.375     0.598    77.547  3.095E+07  3.109E+08
  17    0.971   61.191    3.618     0.375     0.141    51.403  1.013E+07  1.019E+08


Requested Outputs:


 Col   Parameter            Units               
 ---   ---------------      ---------------     
   0   Time                 (s)                 
   1   OoPDefl1             (m)                 
   2   IPDefl1              (m)                 
   3   TwstDefl1            (deg)               
   4   BldPitch1            (deg)               
   5   Azimuth              (deg)               
   6   RotSpeed             (rpm)               
   7   GenSpeed             (rpm)               
   8   TwHt1TPxi            (m)                 
   9   TwHt1TPyi            (m)                 
  10   TTDspTwst            (deg)               
  11   PtfmSurge            (m)                 
  12   PtfmSway             (m)                 
  13   PtfmRoll             (deg)               
  14   PtfmPitch            (deg)               
  15   Spn2MLxb1            (kN-m)              
  16   Spn2MLyb1            (kN-m)              
  17   RootFxc1             (kN)                
  18   RootFyc1             (kN)                
  19   RootFzc1             (kN)                
  20   RootMxc1             (kN-m)              
  21   RootMyc1             (kN-m)              
  22   RootMzc1             (kN-m)              
  23   RootMyb1             (kN-m)              
  24   RootMyb2             (kN-m)              
  25   RootMyb3             (kN-m)              
  26   RotTorq              (kN-m)              
  27   LSSGagMya            (kN-m)              
  28   LSSGagMza            (kN-m)              
  29   YawBrFxp             (kN)                
  30   YawBrFyp             (kN)                
  31   YawBrFzp             (kN)                
  32   YawBrMxp             (kN-m)              
  33   YawBrMyp             (kN-m)              
  34   YawBrMzp             (kN-m)              
  35   TTDspFA              (m)                 
  36   TTDspSS              (m)                 
  37   Q_Sg                 (m)                 
  38   Q_Sw                 (m)                 
  39   Q_Hv                 (m)                 
  40   Q_R                  (rad)               
  41   Q_P                  (rad)               
  42   Q_Y                  (rad)               
  43   Q_TFA1               (m)                 
  44   Q_TSS1               (m)                 
  45   Q_TFA2               (m)                 
  46   Q_TSS2               (m)                 
  47   Q_Yaw                (rad)               
  48   Q_GeAz               (rad)               
  49   Q_DrTr               (rad)               
  50   Q_B1F1               (m)                 
  51   Q_B1E1               (m)                 
  52   Q_B1F2               (m)                 
  53   Q_B2F1               (m)                 
  54   Q_B2E1               (m)                 
  55   Q_B2F2               (m)                 
  56   Q_B3F1               (m)                 
  57   Q_B3E1               (m)                 
  58   Q_B3F2               (m)                 
  59   QD_Sg                (m/s)               
  60   QD_Sw                (m/s)               
  61   QD_Hv                (m/s)               
  62   QD_R                 (rad/s)             
  63   QD_P                 (rad/s)             
  64   QD_Y                 (rad/s)             
  65   QD_TFA1              (m/s)               
  66   QD_TSS1              (m/s)               
  67   QD_TFA2              (m/s)               
  68   QD_TSS2              (m/s)               
  69   QD_Yaw               (rad/s)             
  70   QD_GeAz              (rad/s)             
  71   QD_DrTr              (rad/s)             
  72   QD_B1F1              (m/s)               
  73   QD_B1E1              (m/s)               
  74   QD_B1F2              (m/s)               
  75   QD_B2F1              (m/s)               
  76   QD_B2E1              (m/s)               
  77   QD_B2F2              (m/s)               
  78   QD_B3F1              (m/s)               
  79   QD_B3E1              (m/s)               
  80   QD_B3F2              (m/s)               
  81   QD2_B1E1             (m/s^2)             
  82   QD2_B2E1             (m/s^2)             
  83   QD2_B3E1             (m/s^2)             
  84   QD2_B1F1             (m/s^2)             
  85   QD2_B2F1             (m/s^2)             
  86   QD2_B3F1             (m/s^2)             
  87   QD2_B1F2             (m/s^2)             
  88   QD2_B2F2             (m/s^2)             
  89   QD2_B3F2             (m/s^2)             
  90   QD2_Teet             INVALID             
  91   QD2_DrTr             (rad/s^2)           
  92   QD2_GeAz             (rad/s^2)           
  93   QD2_RFrl             (rad/s^2)           
  94   QD2_TFrl             (rad/s^2)           
  95   QD2_Yaw              (rad/s^2)           
  96   QD2_TFA1             (m/s^2)             
  97   QD2_TSS1             (m/s^2)             
  98   QD2_TFA2             (m/s^2)             
  99   QD2_TSS2             (m/s^2)             
 100   QD2_Sg               (m/s^2)             
 101   QD2_Sw               (m/s^2)             
 102   QD2_Hv               (m/s^2)             
 103   QD2_R                (rad/s^2)           
 104   QD2_P                (rad/s^2)           
 105   QD2_Y                (rad/s^2)           


  Requested Output Channels at each blade station:
 Col   Parameter            Units               
 ---   ---------------      ---------------     
