
This summary file was generated by TurbSim (from OpenFAST-v3.5.3) on 11-Sep-2024 at 10:39:52.


Runtime Options:

2073448544  Random seed #1
 -75384093  Random seed #2
         F  Output binary HH turbulence parameters?
         F  Output formatted turbulence parameters?
         F  Output AeroDyn HH files?
         T  Output AeroDyn FF files?
         F  Output BLADED FF files?
         F  Output tower data?
         F  Output HAWC FF files?
         F  Output formatted FF files?
         F  Output coherent turbulence time step file?
 1 -   HUB  IEC turbulence models scaled to exact specified standard deviation


Turbine/Model Specifications:

        50  Vertical grid-point matrix dimension
        50  Horizontal grid-point matrix dimension
     0.013  Time step [seconds]
  1000.000  Analysis time [seconds]
  1000.000  Usable output time [seconds]
    90.000  Hub height [m]
   175.000  Grid height [m]
   175.000  Grid width [m]
     0.000  Vertical flow angle [degrees]
     0.000  Horizontal flow angle [degrees]


Meteorological Boundary Conditions:

    IECKAI  IEC Kaimal spectral model
         1  IEC standard: IEC 61400-1 Ed. 3: 2005
     8.200  Percent turbulence intensity, IEC 61400-1 Ed. 3: 2005
       NTM  IEC Normal Turbulence Model
       N/A  IEC Extreme Turbulence Model (ETM) "c" parameter [m/s]
       PL   Wind profile type
    90.000  Reference height [m]
    13.000  Reference wind speed [m/s]
       N/A  Jet height [m]
     0.180  Power law exponent
     0.108  Surface roughness length [m]


Non-IEC Meteorological Boundary Conditions:

       N/A  Site latitude [degrees]
       N/A  Gradient Richardson number
       N/A  Friction or shear velocity [m/s]
       N/A  Mixing layer depth [m]
       N/A  Mean hub u'w' Reynolds stress
       N/A  Mean hub u'v' Reynolds stress
       N/A  Mean hub v'w' Reynolds stress


Spatial Coherence Models:

       IEC  u-component coherence model
       IEC  v-component coherence model
       IEC  w-component coherence model
(   12.000, 0.353E-03)  u-component coherence parameters
(   12.000, 0.353E-03)  v-component coherence parameters
(   12.000, 0.353E-03)  w-component coherence parameters
       N/A  Coherence exponent


You have requested that the following file(s) be generated:

   NREL_5MW_Fixed_Offshore\NREL_5MW_Fixed_Offshore_13mps_Monhegan.bts (AeroDyn/TurbSim full-field wind file)


Turbulence Simulation Scaling Parameter Summary:

   Turbulence model used                            =  IEC Kaimal
   Turbulence characteristic                        =  User-specified
   IEC standard                                     =  IEC 61400-1 Ed. 3: 2005
   Mean wind speed at hub height                    =   13.000 m/s
   Characteristic value of standard deviation       =    1.066 m/s
   Turbulence scale                                 =   42.000 m
   u-component integral scale                       =  340.200 m
   Coherency scale                                  =  340.200 m
   Characteristic value of hub turbulence intensity =    8.200%
   Gradient Richardson number                       =    0.000

   Wind profile type                                =  Power law
   Power law exponent                               =    0.180
   Mean shear across rotor disk                     =    0.045 (m/s)/m
   Assumed rotor diameter                           =  175.000 m
   Surface roughness length                         =    0.108 m

   Nyquist frequency of turbulent wind field        =   40.000 Hz

   Number of time steps in the FFT                  =    80000
   Number of time steps output                      =    80000
   Number of points simulated                       =     2501


Mean Flow Angles:

   Vertical   =   0.0 degrees
   Horizontal =   0.0 degrees

Mean Wind Speed Profile:

   Height    Wind Speed   Horizontal Angle  Vertical Angle  U-comp (X)   V-comp (Y)   W-comp (Z)
     (m)        (m/s)         (degrees)       (degrees)       (m/s)        (m/s)        (m/s)   
   ------    ----------   ----------------  --------------  ----------   ----------   ----------
    177.5       14.69            0.00            0.00         14.69         0.00         0.00
    173.9       14.64            0.00            0.00         14.64         0.00         0.00
    170.4       14.58            0.00            0.00         14.58         0.00         0.00
    166.8       14.53            0.00            0.00         14.53         0.00         0.00
    163.2       14.47            0.00            0.00         14.47         0.00         0.00
    159.6       14.41            0.00            0.00         14.41         0.00         0.00
    156.1       14.35            0.00            0.00         14.35         0.00         0.00
    152.5       14.29            0.00            0.00         14.29         0.00         0.00
    148.9       14.23            0.00            0.00         14.23         0.00         0.00
    145.4       14.17            0.00            0.00         14.17         0.00         0.00
    141.8       14.11            0.00            0.00         14.11         0.00         0.00
    138.2       14.04            0.00            0.00         14.04         0.00         0.00
    134.6       13.98            0.00            0.00         13.98         0.00         0.00
    131.1       13.91            0.00            0.00         13.91         0.00         0.00
    127.5       13.84            0.00            0.00         13.84         0.00         0.00
    123.9       13.77            0.00            0.00         13.77         0.00         0.00
    120.4       13.70            0.00            0.00         13.70         0.00         0.00
    116.8       13.62            0.00            0.00         13.62         0.00         0.00
    113.2       13.55            0.00            0.00         13.55         0.00         0.00
    109.6       13.47            0.00            0.00         13.47         0.00         0.00
    106.1       13.39            0.00            0.00         13.39         0.00         0.00
    102.5       13.31            0.00            0.00         13.31         0.00         0.00
     98.9       13.22            0.00            0.00         13.22         0.00         0.00
     95.4       13.14            0.00            0.00         13.14         0.00         0.00
     91.8       13.05            0.00            0.00         13.05         0.00         0.00
     90.0       13.00            0.00            0.00         13.00         0.00         0.00
     88.2       12.95            0.00            0.00         12.95         0.00         0.00
     84.6       12.86            0.00            0.00         12.86         0.00         0.00
     81.1       12.76            0.00            0.00         12.76         0.00         0.00
     77.5       12.65            0.00            0.00         12.65         0.00         0.00
     73.9       12.55            0.00            0.00         12.55         0.00         0.00
     70.4       12.44            0.00            0.00         12.44         0.00         0.00
     66.8       12.32            0.00            0.00         12.32         0.00         0.00
     63.2       12.20            0.00            0.00         12.20         0.00         0.00
     59.6       12.07            0.00            0.00         12.07         0.00         0.00
     56.1       11.94            0.00            0.00         11.94         0.00         0.00
     52.5       11.80            0.00            0.00         11.80         0.00         0.00
     48.9       11.65            0.00            0.00         11.65         0.00         0.00
     45.4       11.49            0.00            0.00         11.49         0.00         0.00
     41.8       11.32            0.00            0.00         11.32         0.00         0.00
     38.2       11.14            0.00            0.00         11.14         0.00         0.00
     34.6       10.95            0.00            0.00         10.95         0.00         0.00
     31.1       10.74            0.00            0.00         10.74         0.00         0.00
     27.5       10.50            0.00            0.00         10.50         0.00         0.00
     23.9       10.24            0.00            0.00         10.24         0.00         0.00
     20.4        9.95            0.00            0.00          9.95         0.00         0.00
     16.8        9.61            0.00            0.00          9.61         0.00         0.00
     13.2        9.20            0.00            0.00          9.20         0.00         0.00
      9.6        8.70            0.00            0.00          8.70         0.00         0.00
      6.1        8.00            0.00            0.00          8.00         0.00         0.00
      2.5        6.82            0.00            0.00          6.82         0.00         0.00


Harvested Random Seeds after Generation of the Random Numbers:

     80032527 Harvested seed # 1
    575574512 Harvested seed # 2


Scaling statistics from the hub grid point:

  Component  Target Sigma (m/s)  Simulated Sigma (m/s)  Scaling Factor
  ---------  ------------------  ---------------------  --------------
     u'             1.066                1.101                0.969
     v'             0.853                0.797                1.070
     w'             0.533                0.522                1.021


Hub-Height Simulated Turbulence Statistical Summary:

   Type of Wind        Min (m/s)   Mean (m/s)    Max (m/s)  Sigma (m/s)       TI (%)
   ----------------    ---------   ----------    ---------  -----------       ------
   Longitudinal (u)         9.04        13.00        17.08        1.066        8.200
   Lateral (v)             -3.17        -0.00         3.76        0.853        6.560
   Vertical (w)            -1.98         0.00         2.14        0.533        4.100
   U component              9.04        13.00        17.08        1.066        8.200
   V component             -3.17        -0.00         3.76        0.853        6.560
   W component             -1.98         0.00         2.14        0.533        4.100
   Horizontal (U&V)         9.07        13.03        17.08        1.063        8.156
   Total                    9.07        13.04        17.09        1.062        8.142

                       Min Reynolds     Mean Reynolds    Max Reynolds    Correlation
   Product             Stress (m/s)^2   Stress (m/s)^2   Stress (m/s)^2  Coefficient
   ----------------    --------------   --------------   --------------  -----------
   u'w'                     -3.551             0.017             5.511         0.030
   u'v'                     -7.866            -0.002             5.728        -0.002
   v'w'                     -5.447            -0.004             3.143        -0.008


   Friction Velocity (Ustar)  =      0.131 m/s
   Maximum Instantaneous TKE  =      9.116 (m/s)^2
   Maximum Instantaneous CTKE =      4.206 (m/s)^2


Grid Point Variance Summary:

   Y-coord  -87.50  -83.93  -80.36  -76.79  -73.21  -69.64  -66.07  -62.50  -58.93  -55.36  -51.79  -48.21  -44.64  -41.07  -37.50  -33.93  -30.36  -26.79  -23.21  -19.64  -16.07  -12.50   -8.93   -5.36   -1.79    1.79    5.36    8.93   12.50   16.07   19.64   23.21   26.79   30.36   33.93   37.50   41.07   44.64   48.21   51.79   55.36   58.93   62.50   66.07   69.64   73.21   76.79   80.36   83.93   87.50

   Height   Standard deviation at grid points for the u component:
   177.50    1.121   1.102   1.085   1.117   1.122   1.127   1.165   1.152   1.138   1.086   1.121   1.104   1.111   1.112   1.110   1.113   1.085   1.056   1.050   1.081   1.027   1.020   1.014   0.986   0.973   0.977   0.942   0.955   0.984   1.004   0.963   0.971   0.934   0.946   0.938   0.940   0.979   0.982   0.955   0.990   1.014   0.974   0.998   1.000   0.975   0.950   1.006   0.938   0.995   0.999
   173.93    1.112   1.146   1.132   1.105   1.085   1.116   1.142   1.157   1.109   1.144   1.137   1.119   1.136   1.105   1.117   1.098   1.080   1.071   1.044   1.036   1.046   1.039   1.024   1.020   0.941   0.955   0.934   0.955   0.950   0.975   0.966   0.924   0.904   0.918   0.904   0.928   0.952   1.006   0.954   0.974   1.001   0.981   0.941   0.966   0.976   0.977   0.999   0.990   1.000   1.031
   170.36    1.201   1.112   1.063   1.072   1.066   1.074   1.138   1.136   1.138   1.158   1.141   1.137   1.154   1.121   1.116   1.120   1.076   1.039   1.058   1.021   1.018   1.024   1.004   1.007   1.000   0.969   0.906   0.949   0.948   0.955   1.005   1.001   0.918   0.915   0.936   0.950   0.940   0.992   1.045   1.000   0.998   0.970   0.990   0.970   0.985   1.006   1.015   1.029   0.994   1.025
   166.79    1.169   1.118   1.092   1.028   1.086   1.105   1.110   1.119   1.147   1.149   1.129   1.187   1.159   1.118   1.139   1.124   1.080   1.056   1.037   1.063   1.055   1.031   1.036   1.034   1.033   0.954   0.949   0.926   0.931   0.937   0.968   0.910   0.929   0.925   0.939   0.945   0.951   1.012   1.024   1.005   0.988   0.992   1.018   1.004   1.026   0.999   0.964   1.014   1.011   0.988
   163.21    1.145   1.098   1.054   1.067   1.098   1.086   1.126   1.135   1.117   1.142   1.148   1.168   1.171   1.171   1.137   1.131   1.075   1.081   1.074   1.061   1.066   1.052   1.034   1.002   1.006   1.028   0.972   0.933   0.911   0.912   0.894   0.897   0.912   0.937   0.955   0.953   0.966   0.973   1.004   1.022   1.015   1.015   1.024   1.033   1.019   0.989   0.982   0.987   0.974   0.969
   159.64    1.136   1.101   1.064   1.088   1.096   1.107   1.108   1.152   1.139   1.106   1.130   1.160   1.188   1.174   1.146   1.108   1.053   1.064   1.065   1.055   1.020   1.066   1.037   1.006   1.000   0.978   0.982   0.924   0.942   0.928   0.927   0.928   0.961   0.961   1.006   1.017   0.996   0.989   1.004   0.995   1.047   1.031   1.010   0.999   1.015   1.013   0.998   1.018   0.994   0.981
   156.07    1.091   1.093   1.072   1.051   1.089   1.130   1.145   1.141   1.143   1.120   1.115   1.150   1.192   1.164   1.139   1.092   1.039   1.040   1.045   1.030   1.025   1.027   1.022   1.022   0.961   0.956   0.960   0.943   0.936   0.942   0.945   0.987   1.001   0.985   1.002   1.006   1.008   1.010   0.980   0.999   1.006   0.989   0.990   0.985   1.001   0.989   1.013   1.012   1.005   0.965
   152.50    1.106   1.040   1.050   1.075   1.119   1.149   1.167   1.120   1.141   1.109   1.112   1.121   1.168   1.177   1.169   1.119   1.094   1.075   1.050   1.021   1.060   1.083   1.052   1.031   1.022   1.000   0.980   0.985   0.987   0.974   1.006   1.017   1.024   1.005   0.995   1.036   1.007   0.975   0.977   1.010   0.990   0.993   0.988   0.972   0.985   1.027   1.009   1.016   1.006   1.002
   148.93    1.090   1.085   1.069   1.062   1.095   1.143   1.121   1.101   1.067   1.092   1.114   1.082   1.114   1.141   1.160   1.127   1.088   1.084   1.077   1.042   1.055   1.074   1.078   1.028   1.007   1.022   1.020   1.016   1.035   1.020   0.992   1.024   1.044   1.069   1.030   1.026   0.960   0.993   1.003   1.001   1.009   1.015   1.025   0.994   0.977   1.013   1.024   1.028   1.036   1.038
   145.36    1.070   1.083   1.063   1.056   1.071   1.083   1.117   1.059   1.050   1.054   1.032   1.007   1.067   1.133   1.110   1.108   1.073   1.063   1.057   1.021   1.023   1.058   1.074   1.028   1.010   1.001   1.042   1.047   1.032   1.037   1.031   1.003   1.052   1.049   1.061   1.030   1.014   1.007   1.027   1.017   1.041   1.029   1.012   0.983   0.958   0.990   1.037   1.042   1.070   1.048
   141.79    1.080   1.069   1.079   1.101   1.078   1.074   1.110   1.039   1.022   1.005   0.998   1.028   1.047   1.082   1.112   1.106   1.067   1.072   1.093   1.066   1.032   1.065   1.102   1.067   1.032   1.000   1.059   1.046   1.026   1.040   1.027   1.045   1.037   1.057   1.071   1.070   1.014   1.011   1.030   1.022   1.027   0.998   0.972   0.975   0.957   1.008   1.053   1.036   1.047   1.053
   138.21    1.068   1.076   1.111   1.071   1.120   1.110   1.074   1.059   1.077   1.045   1.015   1.007   1.037   1.084   1.093   1.091   1.109   1.071   1.072   1.080   1.061   1.062   1.081   1.048   1.017   1.034   1.092   1.070   1.042   1.014   1.008   0.999   1.003   1.073   1.083   1.036   1.039   1.005   1.027   1.048   0.997   1.010   0.983   0.965   0.953   1.001   1.007   1.033   1.052   1.050
   134.64    1.099   1.113   1.131   1.114   1.079   1.049   1.071   1.067   1.040   1.055   1.045   1.047   1.084   1.101   1.136   1.125   1.096   1.105   1.077   1.080   1.097   1.110   1.065   1.063   1.062   1.051   1.061   1.019   1.020   0.984   0.999   1.006   1.034   1.056   1.065   1.083   1.063   1.026   0.997   1.026   1.028   1.014   0.989   0.983   0.983   1.033   1.008   1.072   1.071   1.073
   131.07    1.058   1.118   1.115   1.105   1.063   1.037   1.035   1.043   1.069   1.077   1.058   1.083   1.075   1.137   1.141   1.125   1.109   1.094   1.101   1.083   1.115   1.087   1.064   1.052   1.034   1.048   1.041   1.013   0.990   0.994   0.952   0.995   1.042   1.069   1.053   1.036   1.078   1.016   1.038   1.025   1.019   1.053   0.988   0.975   0.998   0.998   1.045   1.054   1.100   1.030
   127.50    1.092   1.094   1.147   1.108   1.058   1.051   1.061   1.075   1.101   1.103   1.078   1.096   1.099   1.110   1.101   1.122   1.140   1.135   1.120   1.123   1.103   1.089   1.094   1.083   1.060   1.032   1.071   1.043   1.001   0.989   0.970   0.985   1.033   1.047   1.052   1.034   1.054   1.049   1.022   1.049   1.063   1.054   1.017   0.973   1.019   1.010   1.025   1.038   1.018   1.020
   123.93    1.109   1.132   1.121   1.143   1.075   1.103   1.128   1.105   1.105   1.070   1.089   1.122   1.142   1.100   1.099   1.132   1.124   1.133   1.130   1.083   1.088   1.063   1.086   1.069   1.046   1.060   1.051   1.008   0.994   0.967   0.971   0.977   1.017   1.033   1.032   1.018   1.055   1.074   1.035   1.035   1.067   1.049   1.022   0.998   1.017   1.032   1.027   1.046   1.016   1.033
   120.36    1.098   1.093   1.141   1.096   1.071   1.113   1.113   1.105   1.085   1.080   1.104   1.103   1.121   1.113   1.118   1.128   1.103   1.117   1.115   1.071   1.055   1.081   1.057   1.063   1.022   1.019   1.039   1.009   0.996   0.963   0.982   0.999   1.020   1.034   1.016   1.004   1.024   1.047   1.056   1.056   1.075   1.074   1.002   1.006   0.992   1.012   0.998   0.996   1.018   1.008
   116.79    1.070   1.096   1.093   1.085   1.076   1.067   1.073   1.074   1.048   1.054   1.089   1.127   1.122   1.097   1.113   1.115   1.100   1.106   1.097   1.090   1.097   1.087   1.067   1.071   1.045   1.011   0.995   0.984   1.015   0.964   0.975   1.002   1.019   1.009   1.016   1.026   1.037   1.046   1.049   1.028   1.053   1.081   1.030   1.000   0.986   0.979   0.953   0.982   0.977   0.992
   113.21    1.061   1.085   1.076   1.093   1.099   1.075   1.084   1.072   1.010   0.994   1.026   1.046   1.082   1.094   1.093   1.086   1.107   1.124   1.128   1.118   1.104   1.090   1.102   1.085   1.065   1.017   1.041   1.000   1.009   1.016   0.996   1.017   1.026   0.984   1.023   1.064   1.013   0.994   1.020   1.029   1.040   1.041   1.012   0.985   0.953   0.960   0.951   0.939   0.955   0.949
   109.64    1.061   1.092   1.085   1.061   1.086   1.068   1.057   1.061   1.002   1.013   0.998   1.011   1.012   1.044   1.070   1.072   1.083   1.098   1.124   1.092   1.040   1.070   1.097   1.098   1.052   0.972   1.014   0.995   0.975   0.997   0.982   1.014   1.016   1.031   1.064   1.074   1.016   0.988   0.990   1.007   1.044   1.054   1.035   0.988   0.965   0.937   0.957   0.928   0.929   0.914
   106.07    1.058   1.085   1.095   1.104   1.107   1.053   1.037   1.019   1.024   0.990   0.988   0.958   0.975   0.999   1.035   1.040   1.098   1.100   1.083   1.080   1.064   1.046   1.095   1.080   1.046   1.020   1.010   0.974   0.976   0.951   0.971   0.975   0.996   1.035   1.051   1.061   1.014   1.000   1.001   1.020   1.032   1.047   1.027   0.982   0.971   0.985   0.943   0.909   0.933   0.952
   102.50    1.050   1.036   1.020   1.045   1.048   1.066   1.025   1.042   1.000   0.962   0.953   0.993   1.002   0.988   1.012   1.063   1.120   1.068   1.082   1.089   1.067   1.079   1.077   1.039   1.022   1.035   1.043   0.999   0.994   1.016   0.985   0.970   0.957   0.993   1.017   1.025   1.006   0.974   0.988   0.978   1.000   0.998   0.997   0.963   0.984   0.983   0.979   0.954   0.939   0.946
    98.93    1.041   1.004   0.990   0.992   1.011   1.046   1.032   1.025   1.025   1.048   1.014   0.997   0.969   1.011   1.019   1.069   1.115   1.103   1.119   1.151   1.092   1.108   1.091   1.082   1.064   1.077   1.050   1.033   1.012   0.993   1.026   1.006   0.977   1.003   1.010   1.015   0.997   0.960   1.008   1.029   0.980   1.030   1.007   1.009   0.962   0.971   0.974   0.976   0.963   0.959
    95.36    1.030   1.003   0.991   1.009   1.010   0.989   1.021   1.032   1.027   1.070   1.040   1.007   1.011   0.999   1.053   1.089   1.104   1.124   1.165   1.133   1.104   1.112   1.102   1.080   1.075   1.097   1.057   1.044   1.023   1.057   1.057   1.053   1.033   1.019   0.965   0.971   0.982   0.942   0.968   0.988   0.991   1.027   0.974   0.992   0.986   0.979   1.024   1.012   0.995   0.947
    91.79    1.021   1.022   1.035   1.003   1.006   1.006   1.014   1.005   1.040   1.048   1.049   1.060   1.053   1.077   1.117   1.088   1.097   1.097   1.109   1.130   1.128   1.114   1.102   1.066   1.084   1.073   1.082   1.058   1.028   1.022   1.030   1.036   1.038   0.996   0.967   0.964   0.976   0.969   0.952   0.966   1.034   1.036   0.995   0.999   1.017   1.005   1.016   1.006   1.016   0.942
    88.21    1.050   1.046   1.059   1.011   1.007   0.993   1.010   0.994   1.025   1.015   1.003   1.070   1.072   1.125   1.082   1.100   1.095   1.083   1.093   1.105   1.082   1.075   1.065   1.058   1.047   1.048   1.073   1.055   1.031   1.016   1.021   0.991   0.996   1.022   1.011   0.981   0.984   1.022   1.005   0.991   0.999   1.020   1.008   1.023   1.057   1.036   1.015   1.024   1.028   0.985
    84.64    1.042   1.091   1.077   1.031   1.002   1.010   1.001   1.028   1.023   1.033   1.018   1.034   1.054   1.110   1.088   1.085   1.121   1.091   1.095   1.042   1.036   1.060   1.064   1.091   1.097   1.040   1.032   1.050   1.052   1.027   1.030   1.007   1.043   1.000   1.005   1.017   1.008   0.981   0.978   0.987   0.974   0.976   1.013   1.011   1.034   1.051   1.022   0.992   0.971   0.967
    81.07    1.008   1.044   1.019   1.040   1.037   1.052   1.006   1.022   1.041   1.000   0.998   1.011   1.039   1.028   1.048   1.062   1.098   1.105   1.039   1.038   1.008   1.038   1.009   1.030   1.058   1.064   0.998   1.039   1.033   1.044   1.015   0.992   1.037   1.048   1.023   1.006   1.011   0.985   0.982   0.964   0.975   0.967   0.961   0.989   1.014   1.033   0.984   0.993   0.974   1.002
    77.50    1.034   1.007   1.043   1.017   1.011   1.016   1.014   1.009   0.996   0.981   1.003   1.007   1.029   1.026   1.047   1.020   1.027   1.032   1.025   1.018   1.015   0.987   0.980   1.027   0.996   1.033   1.052   1.018   1.026   1.021   0.976   0.994   1.022   1.044   1.034   1.026   0.987   0.960   0.977   0.946   0.930   0.947   0.942   0.973   1.032   1.035   0.971   0.993   0.992   0.992
    73.93    1.006   1.014   1.044   1.040   1.007   1.019   0.999   0.993   1.002   1.017   1.030   1.016   1.016   1.004   1.013   0.995   0.975   0.993   1.021   0.997   1.020   1.003   1.034   1.041   1.021   1.054   1.065   1.046   1.036   1.030   1.023   1.006   1.007   1.010   1.039   1.000   0.960   0.962   0.954   0.958   0.941   0.946   0.931   0.963   1.009   0.978   0.994   0.961   0.982   0.982
    70.36    1.013   0.998   1.023   1.021   1.019   0.991   0.989   1.009   1.030   1.061   1.015   0.985   0.983   0.973   1.015   0.965   0.976   0.980   1.015   1.012   0.994   1.021   1.015   1.022   1.037   1.035   1.050   1.040   1.029   1.025   1.005   0.991   0.965   0.957   0.960   0.962   0.967   0.935   0.960   0.952   0.945   0.930   0.932   0.968   0.981   0.963   0.953   0.981   0.977   0.979
    66.79    0.970   0.988   1.013   1.043   0.991   1.006   1.012   0.992   0.985   1.018   0.996   0.973   0.953   0.982   1.016   0.985   0.993   1.018   1.007   1.001   0.960   0.979   0.968   0.989   1.011   1.044   1.032   1.044   1.030   1.008   1.002   0.993   0.990   0.987   0.960   0.959   0.975   0.959   0.970   0.957   0.959   0.934   0.905   0.917   0.933   0.922   0.920   0.942   0.974   0.965
    63.21    0.977   0.970   0.935   0.959   0.995   1.007   1.034   1.000   0.979   0.980   0.997   0.957   0.954   0.951   0.986   0.996   1.002   0.995   0.991   0.963   0.965   0.998   0.959   0.971   0.999   1.027   1.048   1.041   1.041   1.019   1.000   0.995   0.992   0.998   0.951   0.966   0.939   0.935   0.931   0.940   0.953   0.946   0.923   0.912   0.921   0.952   0.940   0.961   0.969   0.976
    59.64    0.921   0.943   0.976   0.993   0.994   1.005   1.029   0.995   0.962   0.980   0.991   0.963   0.954   0.944   0.980   0.999   0.991   0.979   0.990   0.992   0.978   1.007   0.960   0.954   0.997   1.003   1.044   1.047   1.039   1.022   1.004   1.015   1.006   1.031   0.987   0.982   0.976   0.923   0.928   0.948   0.986   0.964   0.947   0.928   0.948   0.979   0.967   0.956   0.980   0.983
    56.07    0.948   0.912   0.949   0.964   1.008   1.030   1.037   1.009   0.955   0.980   0.974   0.957   0.974   0.981   0.989   1.005   1.012   1.018   1.005   0.985   0.990   0.991   0.939   0.953   0.965   0.993   0.982   1.025   1.040   1.003   0.991   1.040   1.030   1.057   1.046   0.995   1.005   0.994   0.957   0.970   0.966   0.952   0.947   0.957   0.956   0.999   1.010   1.004   0.987   0.982
    52.50    0.928   0.915   0.966   0.984   1.000   1.027   1.047   1.029   0.992   0.983   0.988   0.970   0.974   0.984   0.996   0.947   0.943   1.032   1.044   1.012   0.958   0.974   0.961   0.943   0.981   0.981   0.964   0.990   1.019   1.010   1.000   1.030   1.045   1.051   1.061   0.999   0.985   0.995   0.994   0.964   0.950   0.955   0.932   0.942   0.945   0.954   0.991   0.980   0.973   0.973
    48.93    0.933   0.927   0.986   1.000   1.024   1.043   1.032   1.061   1.031   1.014   0.990   0.989   0.994   0.999   0.991   0.994   0.958   0.996   1.037   1.044   1.029   0.989   0.975   1.005   0.973   0.975   0.974   1.013   1.043   1.072   1.036   1.058   1.067   1.054   0.996   0.993   0.992   1.032   1.009   0.985   0.950   0.936   0.960   0.962   0.984   0.971   0.979   0.989   0.979   1.009
    45.36    0.954   0.960   1.045   1.018   1.029   1.033   1.030   1.042   1.039   1.003   0.999   1.038   1.014   1.001   0.954   0.951   0.978   1.011   1.022   1.025   1.025   1.006   1.004   1.013   0.993   0.989   0.982   1.008   1.038   1.038   1.056   1.039   1.035   1.009   0.995   1.012   1.012   1.029   0.999   1.010   0.959   0.939   0.969   0.973   0.991   1.005   0.961   1.004   1.011   0.997
    41.79    0.975   1.010   1.077   1.090   1.025   1.039   1.046   1.043   1.037   1.021   0.987   0.991   0.971   0.998   0.977   0.987   0.987   0.982   0.999   1.003   1.042   1.011   0.987   0.992   0.954   0.953   1.003   0.975   1.005   1.005   0.990   1.019   1.009   1.001   0.958   0.988   0.984   1.034   1.032   1.014   0.985   0.967   0.968   0.975   1.005   1.014   0.981   0.974   0.999   1.034
    38.21    0.958   1.008   1.048   1.064   1.041   1.030   0.994   1.005   1.009   1.009   0.989   1.039   0.982   0.976   0.971   0.999   0.972   0.983   0.999   1.027   1.039   1.037   1.027   0.993   0.960   0.992   1.010   0.976   0.957   1.010   0.984   1.026   1.004   0.973   0.952   0.950   0.963   1.002   1.022   0.987   0.953   0.969   0.982   1.008   1.027   1.020   1.031   1.003   1.014   1.016
    34.64    1.002   1.024   1.049   1.055   1.016   1.034   0.978   0.992   0.968   0.989   1.001   1.057   1.018   0.992   0.977   0.978   0.973   0.993   1.020   1.029   1.038   1.048   0.993   0.939   0.978   0.983   0.989   0.973   0.956   0.979   0.984   0.962   0.985   0.955   0.943   0.972   0.953   0.984   0.964   0.965   0.984   0.968   0.976   1.033   1.010   1.035   1.028   0.999   0.998   0.983
    31.07    1.005   1.058   1.036   1.030   1.018   0.993   0.980   0.987   1.006   0.972   1.024   1.034   0.992   0.985   0.975   0.970   0.970   0.976   1.024   1.012   1.010   0.987   0.970   0.928   0.929   0.982   0.980   0.981   0.990   1.007   0.977   0.951   0.979   0.976   0.973   0.939   0.975   0.934   0.946   0.941   0.980   0.989   1.002   1.022   0.979   1.027   1.009   1.000   1.001   0.988
    27.50    1.012   1.033   1.010   1.043   1.048   0.988   0.964   0.976   0.991   0.996   0.996   1.000   1.014   0.968   1.003   0.977   0.972   1.003   1.016   1.035   0.989   0.968   0.976   0.983   0.945   0.958   0.971   0.952   0.971   1.005   0.960   0.964   0.974   0.971   0.950   0.946   0.900   0.953   0.916   0.925   0.923   1.002   0.997   1.009   1.030   1.007   1.015   0.972   0.963   0.963
    23.93    0.989   0.990   0.987   1.021   1.033   1.038   0.965   0.963   0.986   0.972   1.009   1.029   1.014   0.961   0.978   0.965   0.971   0.940   0.996   1.017   1.013   0.958   0.937   0.931   0.949   0.947   0.971   0.938   0.958   0.950   0.935   0.918   0.943   0.934   0.952   0.924   0.945   0.954   0.891   0.933   0.943   0.974   1.029   1.018   1.005   1.025   1.007   0.991   0.940   0.947
    20.36    0.960   0.980   0.960   0.991   1.031   1.031   1.010   0.998   0.994   0.962   1.022   1.023   1.006   0.955   0.950   0.933   0.979   0.972   0.964   1.006   1.013   0.985   0.938   0.917   0.932   0.946   0.950   0.945   0.934   0.940   0.930   0.903   0.893   0.921   0.924   0.941   0.941   0.933   0.919   0.927   0.934   0.978   0.999   1.007   1.008   1.005   0.995   0.995   0.988   0.985
    16.79    1.000   0.991   1.000   1.024   0.984   1.002   1.030   1.049   1.023   1.012   1.002   1.022   1.005   1.001   0.985   0.943   0.975   0.986   0.998   1.021   1.006   0.953   0.954   0.947   0.938   0.934   0.957   0.970   0.946   0.951   0.935   0.904   0.920   0.905   0.923   0.956   0.965   0.958   0.941   0.925   0.983   0.989   1.005   0.994   1.016   1.002   1.002   0.970   0.977   0.979
    13.21    1.010   0.975   0.971   1.048   1.018   1.004   1.024   1.049   1.035   0.996   0.996   0.984   1.008   0.978   0.944   0.955   0.976   0.985   1.014   0.974   0.926   0.938   0.981   0.952   0.967   0.982   1.003   0.994   0.987   0.961   0.938   0.954   0.945   0.961   0.942   0.942   0.946   0.972   0.989   0.973   0.981   0.951   0.977   0.946   0.977   0.973   0.998   0.970   0.974   1.009
     9.64    1.031   0.974   0.952   1.018   1.005   1.011   1.017   1.034   1.030   1.013   0.968   0.975   0.953   0.932   0.943   0.941   0.946   0.956   0.944   0.925   0.920   0.913   0.966   0.950   0.962   1.002   1.021   1.022   1.006   0.966   0.956   0.941   0.933   0.928   0.915   0.933   0.931   0.958   0.977   0.950   0.980   0.974   0.948   0.953   0.963   0.956   0.982   0.961   0.978   1.020
     6.07    1.015   0.973   0.973   1.005   1.018   1.026   1.051   1.039   1.024   0.988   0.949   0.935   0.941   0.929   0.923   0.907   0.914   0.929   0.930   0.933   0.921   0.918   0.944   0.959   0.963   0.978   0.999   0.986   1.010   0.955   0.956   0.937   0.967   0.943   0.916   0.940   0.939   0.938   0.959   0.959   0.952   0.979   0.958   0.959   0.940   0.967   0.935   0.960   0.981   1.013
     2.50    1.005   0.967   0.987   1.007   0.994   1.038   1.039   1.006   0.986   0.940   0.949   0.942   0.927   0.945   0.923   0.955   0.939   0.930   0.945   0.911   0.934   0.960   0.957   0.951   1.004   0.993   0.972   0.947   0.963   0.943   0.929   0.942   0.953   0.943   0.944   0.914   0.910   0.933   0.927   0.953   0.944   0.924   0.935   0.950   0.960   0.975   0.927   0.974   1.036   1.041

   Height   Standard deviation at grid points for the v component:
   177.50    0.824   0.831   0.841   0.845   0.846   0.830   0.828   0.820   0.829   0.810   0.821   0.802   0.805   0.812   0.845   0.833   0.846   0.869   0.871   0.856   0.832   0.843   0.847   0.844   0.861   0.864   0.885   0.925   0.929   0.961   0.924   0.939   0.935   0.951   0.954   0.965   0.948   0.956   0.930   0.922   0.929   0.923   0.890   0.875   0.912   0.929   0.919   0.912   0.899   0.899
   173.93    0.802   0.819   0.825   0.871   0.868   0.868   0.834   0.854   0.831   0.795   0.827   0.822   0.813   0.829   0.862   0.834   0.862   0.854   0.841   0.813   0.837   0.859   0.845   0.833   0.864   0.853   0.887   0.906   0.938   0.964   0.916   0.901   0.930   0.946   0.931   0.943   0.950   0.919   0.900   0.917   0.916   0.901   0.909   0.910   0.936   0.921   0.903   0.876   0.904   0.897
   170.36    0.808   0.803   0.825   0.845   0.857   0.840   0.874   0.845   0.850   0.813   0.815   0.830   0.820   0.824   0.831   0.835   0.840   0.841   0.820   0.810   0.844   0.834   0.848   0.858   0.854   0.846   0.850   0.883   0.902   0.912   0.908   0.911   0.912   0.906   0.934   0.934   0.946   0.912   0.914   0.901   0.912   0.887   0.904   0.896   0.897   0.901   0.887   0.921   0.934   0.918
   166.79    0.841   0.810   0.830   0.818   0.834   0.839   0.811   0.850   0.820   0.825   0.826   0.831   0.832   0.809   0.809   0.812   0.815   0.835   0.827   0.837   0.864   0.866   0.856   0.865   0.867   0.833   0.827   0.876   0.887   0.883   0.880   0.904   0.935   0.915   0.934   0.960   0.957   0.919   0.928   0.907   0.893   0.896   0.900   0.894   0.898   0.892   0.918   0.909   0.928   0.930
   163.21    0.850   0.842   0.840   0.833   0.824   0.845   0.838   0.801   0.803   0.817   0.816   0.794   0.813   0.787   0.796   0.818   0.830   0.857   0.847   0.846   0.851   0.884   0.864   0.875   0.853   0.846   0.830   0.858   0.874   0.886   0.886   0.912   0.911   0.918   0.936   0.941   0.948   0.948   0.928   0.890   0.908   0.889   0.891   0.884   0.892   0.909   0.913   0.940   0.945   0.916
   159.64    0.848   0.827   0.820   0.844   0.841   0.838   0.842   0.843   0.823   0.825   0.798   0.824   0.801   0.791   0.810   0.812   0.842   0.853   0.876   0.869   0.847   0.866   0.868   0.865   0.859   0.872   0.865   0.837   0.881   0.899   0.937   0.941   0.923   0.915   0.932   0.921   0.930   0.942   0.917   0.918   0.917   0.910   0.886   0.895   0.907   0.908   0.914   0.924   0.919   0.906
   156.07    0.849   0.832   0.859   0.848   0.861   0.842   0.854   0.864   0.846   0.820   0.831   0.835   0.830   0.816   0.811   0.815   0.812   0.851   0.874   0.858   0.855   0.859   0.868   0.857   0.848   0.848   0.848   0.862   0.885   0.906   0.914   0.928   0.921   0.911   0.913   0.931   0.912   0.929   0.931   0.956   0.920   0.917   0.895   0.909   0.912   0.893   0.895   0.899   0.905   0.921
   152.50    0.887   0.859   0.847   0.855   0.848   0.836   0.840   0.838   0.826   0.809   0.827   0.832   0.837   0.826   0.804   0.815   0.823   0.865   0.899   0.900   0.871   0.871   0.855   0.856   0.842   0.840   0.831   0.858   0.865   0.886   0.904   0.907   0.904   0.892   0.922   0.922   0.928   0.913   0.912   0.923   0.928   0.911   0.921   0.914   0.915   0.912   0.927   0.904   0.923   0.928
   148.93    0.891   0.886   0.861   0.868   0.848   0.840   0.821   0.825   0.793   0.789   0.835   0.839   0.856   0.848   0.803   0.818   0.823   0.825   0.859   0.912   0.902   0.879   0.877   0.885   0.858   0.858   0.836   0.854   0.878   0.881   0.882   0.912   0.908   0.886   0.908   0.915   0.906   0.880   0.887   0.908   0.894   0.915   0.929   0.894   0.909   0.909   0.917   0.917   0.932   0.909
   145.36    0.860   0.873   0.871   0.863   0.867   0.860   0.837   0.806   0.809   0.828   0.820   0.850   0.867   0.838   0.815   0.840   0.817   0.845   0.858   0.888   0.884   0.881   0.866   0.868   0.854   0.852   0.868   0.875   0.877   0.912   0.923   0.907   0.912   0.878   0.883   0.894   0.909   0.877   0.890   0.897   0.885   0.881   0.937   0.928   0.934   0.919   0.918   0.919   0.923   0.908
   141.79    0.841   0.875   0.874   0.852   0.865   0.873   0.857   0.821   0.814   0.829   0.826   0.831   0.836   0.841   0.828   0.817   0.822   0.854   0.875   0.872   0.861   0.867   0.876   0.856   0.866   0.883   0.869   0.897   0.892   0.902   0.922   0.911   0.891   0.893   0.905   0.877   0.878   0.875   0.876   0.885   0.887   0.930   0.914   0.926   0.933   0.959   0.936   0.934   0.935   0.896
   138.21    0.857   0.856   0.869   0.847   0.861   0.883   0.839   0.823   0.808   0.837   0.822   0.830   0.826   0.843   0.815   0.820   0.836   0.879   0.879   0.869   0.864   0.870   0.863   0.857   0.849   0.853   0.851   0.865   0.898   0.899   0.891   0.889   0.875   0.871   0.894   0.891   0.879   0.885   0.913   0.903   0.904   0.919   0.910   0.942   0.939   0.956   0.937   0.934   0.907   0.913
   134.64    0.854   0.839   0.844   0.875   0.850   0.852   0.844   0.817   0.841   0.826   0.831   0.846   0.828   0.821   0.849   0.875   0.875   0.846   0.880   0.858   0.850   0.864   0.859   0.848   0.835   0.839   0.856   0.844   0.879   0.886   0.878   0.866   0.871   0.871   0.868   0.882   0.885   0.900   0.918   0.895   0.915   0.890   0.918   0.930   0.930   0.941   0.940   0.946   0.921   0.902
   131.07    0.832   0.859   0.853   0.851   0.843   0.835   0.849   0.839   0.819   0.824   0.833   0.857   0.847   0.866   0.860   0.863   0.870   0.850   0.870   0.873   0.871   0.870   0.874   0.845   0.839   0.857   0.854   0.875   0.863   0.874   0.860   0.879   0.858   0.860   0.882   0.887   0.886   0.862   0.876   0.890   0.890   0.903   0.903   0.926   0.926   0.931   0.900   0.922   0.937   0.943
   127.50    0.817   0.844   0.859   0.853   0.866   0.820   0.866   0.853   0.843   0.862   0.875   0.856   0.870   0.859   0.860   0.858   0.879   0.864   0.838   0.858   0.882   0.841   0.846   0.851   0.868   0.851   0.857   0.862   0.852   0.864   0.864   0.854   0.858   0.865   0.863   0.864   0.866   0.876   0.866   0.876   0.898   0.902   0.890   0.894   0.918   0.894   0.898   0.907   0.908   0.905
   123.93    0.804   0.821   0.853   0.886   0.882   0.864   0.886   0.877   0.856   0.888   0.861   0.877   0.827   0.859   0.871   0.855   0.873   0.852   0.851   0.864   0.829   0.856   0.871   0.872   0.862   0.880   0.871   0.862   0.857   0.866   0.866   0.848   0.855   0.857   0.847   0.867   0.858   0.840   0.842   0.865   0.904   0.898   0.903   0.922   0.885   0.892   0.911   0.910   0.902   0.905
   120.36    0.842   0.856   0.903   0.891   0.865   0.865   0.908   0.912   0.914   0.883   0.876   0.858   0.833   0.847   0.877   0.864   0.871   0.878   0.877   0.867   0.859   0.892   0.885   0.866   0.878   0.895   0.869   0.857   0.820   0.855   0.839   0.834   0.847   0.859   0.859   0.861   0.835   0.862   0.882   0.863   0.879   0.888   0.910   0.916   0.906   0.897   0.908   0.916   0.922   0.919
   116.79    0.855   0.865   0.885   0.894   0.861   0.888   0.900   0.932   0.921   0.907   0.885   0.862   0.843   0.845   0.868   0.874   0.885   0.855   0.870   0.859   0.873   0.868   0.885   0.885   0.874   0.889   0.866   0.853   0.850   0.832   0.804   0.813   0.834   0.850   0.841   0.839   0.850   0.862   0.866   0.855   0.887   0.868   0.891   0.892   0.898   0.879   0.898   0.901   0.910   0.867
   113.21    0.824   0.852   0.870   0.885   0.888   0.904   0.918   0.929   0.910   0.896   0.874   0.859   0.834   0.861   0.861   0.887   0.888   0.852   0.878   0.886   0.885   0.881   0.877   0.866   0.875   0.881   0.883   0.856   0.835   0.820   0.808   0.814   0.840   0.840   0.831   0.836   0.849   0.882   0.857   0.863   0.838   0.857   0.880   0.886   0.905   0.880   0.898   0.893   0.888   0.878
   109.64    0.837   0.846   0.884   0.886   0.890   0.913   0.919   0.901   0.913   0.900   0.914   0.872   0.865   0.873   0.881   0.891   0.878   0.889   0.907   0.893   0.889   0.877   0.860   0.865   0.875   0.868   0.863   0.843   0.824   0.831   0.835   0.829   0.841   0.834   0.817   0.846   0.870   0.876   0.851   0.866   0.861   0.867   0.862   0.900   0.891   0.888   0.902   0.890   0.891   0.866
   106.07    0.854   0.859   0.861   0.881   0.882   0.898   0.953   0.920   0.912   0.925   0.918   0.904   0.881   0.862   0.871   0.881   0.877   0.916   0.897   0.896   0.879   0.866   0.844   0.869   0.876   0.876   0.848   0.844   0.828   0.813   0.830   0.850   0.839   0.812   0.816   0.820   0.847   0.835   0.848   0.846   0.863   0.877   0.882   0.875   0.894   0.906   0.915   0.882   0.894   0.890
   102.50    0.846   0.890   0.880   0.881   0.903   0.891   0.893   0.904   0.899   0.914   0.901   0.888   0.881   0.888   0.876   0.892   0.927   0.918   0.906   0.878   0.885   0.883   0.857   0.862   0.865   0.843   0.868   0.862   0.835   0.845   0.869   0.849   0.848   0.831   0.843   0.841   0.848   0.838   0.822   0.876   0.876   0.898   0.888   0.881   0.879   0.891   0.899   0.890   0.910   0.886
    98.93    0.884   0.874   0.879   0.888   0.889   0.872   0.888   0.901   0.884   0.879   0.910   0.881   0.867   0.891   0.871   0.885   0.921   0.925   0.917   0.869   0.863   0.879   0.859   0.861   0.840   0.845   0.879   0.885   0.848   0.868   0.862   0.870   0.852   0.874   0.834   0.837   0.845   0.832   0.838   0.899   0.894   0.873   0.880   0.900   0.894   0.892   0.894   0.905   0.932   0.891
    95.36    0.865   0.893   0.892   0.863   0.861   0.866   0.894   0.886   0.888   0.906   0.894   0.890   0.887   0.875   0.878   0.886   0.895   0.902   0.906   0.885   0.865   0.858   0.851   0.864   0.856   0.863   0.874   0.880   0.863   0.865   0.866   0.877   0.859   0.860   0.854   0.827   0.846   0.833   0.867   0.880   0.913   0.886   0.887   0.916   0.916   0.917   0.943   0.913   0.899   0.882
    91.79    0.849   0.858   0.891   0.878   0.866   0.857   0.880   0.871   0.887   0.904   0.917   0.889   0.880   0.861   0.876   0.872   0.888   0.879   0.918   0.876   0.858   0.863   0.863   0.855   0.839   0.869   0.909   0.879   0.862   0.874   0.856   0.856   0.859   0.869   0.840   0.867   0.852   0.849   0.868   0.893   0.912   0.889   0.891   0.881   0.903   0.934   0.919   0.933   0.911   0.900
    88.21    0.881   0.861   0.884   0.861   0.872   0.861   0.879   0.867   0.869   0.889   0.897   0.869   0.868   0.856   0.874   0.895   0.896   0.890   0.892   0.896   0.892   0.865   0.841   0.833   0.857   0.867   0.876   0.859   0.863   0.869   0.873   0.885   0.881   0.890   0.891   0.877   0.872   0.874   0.877   0.905   0.946   0.922   0.884   0.883   0.908   0.909   0.946   0.953   0.920   0.940
    84.64    0.848   0.850   0.847   0.846   0.817   0.844   0.863   0.855   0.851   0.883   0.886   0.858   0.831   0.839   0.846   0.891   0.892   0.892   0.882   0.904   0.894   0.862   0.839   0.853   0.840   0.858   0.864   0.889   0.866   0.900   0.903   0.891   0.873   0.857   0.885   0.893   0.879   0.893   0.915   0.942   0.950   0.913   0.891   0.882   0.912   0.920   0.927   0.917   0.932   0.896
    81.07    0.878   0.867   0.877   0.830   0.809   0.823   0.817   0.834   0.845   0.886   0.871   0.836   0.841   0.861   0.889   0.892   0.897   0.914   0.910   0.896   0.876   0.840   0.853   0.861   0.832   0.874   0.893   0.905   0.887   0.905   0.897   0.884   0.877   0.872   0.874   0.897   0.917   0.909   0.918   0.936   0.931   0.905   0.896   0.900   0.891   0.901   0.930   0.936   0.919   0.894
    77.50    0.862   0.875   0.853   0.841   0.822   0.813   0.808   0.811   0.841   0.838   0.868   0.862   0.856   0.883   0.905   0.886   0.889   0.903   0.943   0.909   0.880   0.879   0.841   0.831   0.852   0.881   0.879   0.893   0.900   0.893   0.890   0.878   0.886   0.861   0.887   0.883   0.899   0.902   0.938   0.925   0.922   0.927   0.905   0.870   0.891   0.900   0.898   0.903   0.884   0.875
    73.93    0.864   0.852   0.854   0.857   0.860   0.826   0.810   0.843   0.862   0.838   0.838   0.846   0.861   0.895   0.891   0.902   0.894   0.897   0.891   0.890   0.881   0.895   0.879   0.866   0.865   0.890   0.884   0.903   0.915   0.908   0.875   0.874   0.844   0.867   0.870   0.894   0.890   0.903   0.914   0.925   0.924   0.903   0.906   0.875   0.901   0.921   0.917   0.889   0.864   0.844
    70.36    0.851   0.864   0.869   0.856   0.845   0.825   0.835   0.865   0.877   0.856   0.843   0.821   0.849   0.881   0.881   0.873   0.870   0.900   0.889   0.890   0.888   0.902   0.908   0.906   0.882   0.904   0.895   0.903   0.903   0.889   0.899   0.872   0.861   0.881   0.874   0.883   0.880   0.875   0.881   0.915   0.924   0.909   0.901   0.897   0.909   0.906   0.908   0.904   0.871   0.860
    66.79    0.871   0.861   0.859   0.846   0.839   0.841   0.843   0.846   0.860   0.849   0.849   0.827   0.839   0.838   0.864   0.851   0.864   0.898   0.875   0.884   0.887   0.892   0.909   0.933   0.915   0.927   0.915   0.899   0.919   0.916   0.911   0.872   0.875   0.865   0.885   0.868   0.907   0.884   0.874   0.905   0.893   0.905   0.902   0.905   0.912   0.897   0.888   0.892   0.870   0.884
    63.21    0.847   0.869   0.908   0.903   0.859   0.872   0.854   0.853   0.856   0.835   0.842   0.824   0.830   0.818   0.833   0.842   0.863   0.859   0.856   0.870   0.898   0.889   0.905   0.900   0.918   0.907   0.907   0.908   0.908   0.916   0.900   0.870   0.862   0.862   0.870   0.883   0.911   0.917   0.911   0.908   0.873   0.919   0.906   0.912   0.913   0.902   0.875   0.890   0.888   0.906
    59.64    0.872   0.880   0.886   0.873   0.852   0.847   0.874   0.852   0.850   0.846   0.815   0.832   0.829   0.826   0.824   0.840   0.853   0.872   0.870   0.872   0.877   0.896   0.894   0.897   0.945   0.952   0.967   0.945   0.907   0.919   0.892   0.876   0.872   0.884   0.900   0.920   0.929   0.919   0.930   0.928   0.926   0.914   0.910   0.897   0.886   0.885   0.885   0.874   0.893   0.895
    56.07    0.872   0.879   0.882   0.855   0.873   0.865   0.866   0.833   0.835   0.834   0.830   0.827   0.816   0.839   0.819   0.837   0.840   0.855   0.873   0.890   0.873   0.889   0.917   0.919   0.936   0.949   0.981   0.978   0.937   0.909   0.905   0.889   0.867   0.878   0.885   0.895   0.919   0.930   0.909   0.908   0.910   0.902   0.889   0.864   0.871   0.889   0.894   0.881   0.869   0.889
    52.50    0.901   0.904   0.899   0.886   0.879   0.886   0.866   0.855   0.829   0.831   0.830   0.813   0.803   0.827   0.847   0.862   0.874   0.868   0.875   0.861   0.913   0.930   0.937   0.939   0.939   0.954   0.988   0.993   0.944   0.921   0.917   0.899   0.894   0.885   0.886   0.900   0.898   0.920   0.919   0.927   0.899   0.904   0.898   0.897   0.895   0.891   0.909   0.875   0.881   0.879
    48.93    0.882   0.899   0.894   0.886   0.890   0.880   0.879   0.843   0.822   0.837   0.808   0.803   0.822   0.841   0.852   0.861   0.902   0.889   0.905   0.909   0.928   0.942   0.941   0.926   0.927   0.958   0.951   0.970   0.960   0.927   0.945   0.916   0.928   0.904   0.915   0.909   0.925   0.905   0.913   0.899   0.897   0.925   0.906   0.891   0.903   0.926   0.917   0.921   0.902   0.874
    45.36    0.906   0.909   0.884   0.902   0.890   0.907   0.895   0.874   0.855   0.825   0.827   0.828   0.833   0.855   0.883   0.885   0.898   0.901   0.927   0.918   0.927   0.923   0.926   0.934   0.923   0.932   0.944   0.932   0.951   0.959   0.953   0.935   0.917   0.922   0.941   0.939   0.909   0.914   0.932   0.918   0.930   0.904   0.903   0.907   0.914   0.887   0.920   0.906   0.893   0.855
    41.79    0.906   0.904   0.886   0.905   0.903   0.916   0.902   0.888   0.872   0.845   0.842   0.850   0.853   0.878   0.903   0.875   0.902   0.911   0.930   0.908   0.907   0.921   0.897   0.882   0.907   0.917   0.930   0.926   0.950   0.953   0.948   0.966   0.936   0.952   0.936   0.940   0.929   0.944   0.913   0.921   0.900   0.903   0.912   0.906   0.889   0.894   0.897   0.896   0.866   0.869
    38.21    0.886   0.890   0.896   0.895   0.903   0.897   0.921   0.887   0.865   0.848   0.852   0.857   0.873   0.886   0.896   0.903   0.890   0.897   0.915   0.887   0.891   0.903   0.918   0.915   0.917   0.919   0.928   0.956   0.976   0.982   0.967   0.982   0.956   0.968   0.973   0.974   0.959   0.958   0.931   0.925   0.879   0.873   0.879   0.897   0.895   0.868   0.869   0.875   0.887   0.873
    34.64    0.913   0.900   0.911   0.915   0.892   0.878   0.902   0.892   0.905   0.878   0.883   0.892   0.889   0.889   0.902   0.894   0.907   0.904   0.904   0.887   0.885   0.912   0.907   0.902   0.928   0.934   0.931   0.957   0.977   0.985   0.951   0.946   0.980   0.970   0.971   0.982   0.970   1.008   0.951   0.893   0.905   0.895   0.908   0.895   0.886   0.862   0.864   0.892   0.882   0.879
    31.07    0.896   0.870   0.892   0.907   0.910   0.911   0.917   0.908   0.905   0.920   0.894   0.887   0.884   0.897   0.909   0.880   0.900   0.885   0.914   0.890   0.905   0.916   0.941   0.908   0.927   0.917   0.932   0.961   0.993   0.988   0.953   0.966   0.952   0.954   0.944   0.950   0.966   0.968   0.941   0.910   0.916   0.902   0.870   0.877   0.864   0.851   0.853   0.864   0.878   0.855
    27.50    0.907   0.871   0.879   0.874   0.903   0.935   0.908   0.929   0.923   0.911   0.887   0.872   0.883   0.880   0.876   0.871   0.869   0.895   0.928   0.912   0.918   0.926   0.935   0.941   0.940   0.956   0.957   0.966   0.962   0.980   0.981   0.966   0.957   0.926   0.917   0.918   0.948   0.919   0.910   0.910   0.930   0.893   0.860   0.890   0.887   0.888   0.871   0.889   0.866   0.868
    23.93    0.904   0.876   0.872   0.883   0.907   0.899   0.911   0.927   0.933   0.912   0.904   0.882   0.856   0.858   0.848   0.854   0.860   0.870   0.925   0.930   0.934   0.955   0.948   0.939   0.934   0.939   0.964   0.962   0.973   0.984   0.963   0.976   0.967   0.911   0.916   0.909   0.932   0.925   0.887   0.899   0.896   0.892   0.874   0.884   0.874   0.868   0.885   0.906   0.876   0.880
    20.36    0.874   0.879   0.877   0.873   0.873   0.906   0.918   0.897   0.892   0.894   0.897   0.866   0.857   0.859   0.844   0.838   0.874   0.870   0.897   0.917   0.921   0.955   0.945   0.946   0.937   0.944   0.942   0.936   0.963   0.980   0.973   0.962   0.962   0.933   0.936   0.935   0.911   0.915   0.892   0.890   0.892   0.880   0.881   0.892   0.875   0.882   0.884   0.886   0.897   0.878
    16.79    0.883   0.880   0.850   0.872   0.892   0.892   0.900   0.871   0.883   0.895   0.884   0.860   0.873   0.863   0.865   0.872   0.841   0.850   0.895   0.900   0.930   0.931   0.946   0.944   0.966   0.960   0.950   0.949   0.986   0.968   0.973   0.959   0.964   0.943   0.923   0.933   0.912   0.912   0.898   0.888   0.858   0.881   0.853   0.892   0.877   0.891   0.900   0.908   0.888   0.901
    13.21    0.886   0.879   0.850   0.873   0.891   0.884   0.891   0.868   0.831   0.857   0.870   0.853   0.875   0.851   0.871   0.868   0.858   0.867   0.906   0.900   0.921   0.964   0.952   0.975   0.983   0.951   0.967   0.956   0.952   0.972   0.947   0.928   0.933   0.951   0.943   0.929   0.905   0.905   0.896   0.877   0.857   0.889   0.879   0.875   0.900   0.889   0.879   0.895   0.896   0.893
     9.64    0.898   0.878   0.874   0.867   0.871   0.895   0.882   0.855   0.870   0.842   0.869   0.856   0.869   0.862   0.869   0.884   0.875   0.891   0.904   0.919   0.945   0.965   0.957   0.984   0.989   0.973   0.956   0.949   0.940   0.943   0.936   0.967   0.939   0.951   0.946   0.911   0.903   0.888   0.914   0.909   0.906   0.889   0.900   0.888   0.882   0.870   0.860   0.894   0.895   0.907
     6.07    0.900   0.870   0.879   0.864   0.870   0.882   0.884   0.887   0.857   0.872   0.876   0.901   0.855   0.863   0.906   0.897   0.898   0.885   0.898   0.894   0.918   0.927   0.955   0.966   0.945   0.946   0.916   0.941   0.929   0.923   0.939   0.938   0.927   0.934   0.932   0.917   0.920   0.913   0.913   0.919   0.903   0.911   0.897   0.878   0.888   0.866   0.873   0.897   0.913   0.931
     2.50    0.902   0.890   0.856   0.880   0.882   0.857   0.865   0.877   0.850   0.860   0.890   0.878   0.841   0.875   0.883   0.902   0.874   0.901   0.897   0.927   0.932   0.945   0.954   0.928   0.896   0.917   0.895   0.914   0.915   0.922   0.953   0.938   0.935   0.915   0.906   0.911   0.945   0.933   0.928   0.922   0.940   0.905   0.902   0.893   0.890   0.888   0.916   0.911   0.889   0.918

   Height   Standard deviation at grid points for the w component:
   177.50    0.530   0.535   0.533   0.539   0.542   0.537   0.523   0.534   0.529   0.521   0.531   0.546   0.534   0.542   0.545   0.542   0.548   0.554   0.559   0.559   0.564   0.556   0.555   0.551   0.547   0.540   0.536   0.545   0.551   0.546   0.537   0.551   0.547   0.536   0.541   0.546   0.541   0.548   0.555   0.546   0.543   0.539   0.536   0.529   0.548   0.545   0.536   0.538   0.546   0.552
   173.93    0.549   0.548   0.525   0.533   0.530   0.532   0.520   0.533   0.532   0.518   0.529   0.525   0.526   0.525   0.539   0.542   0.547   0.545   0.558   0.556   0.545   0.542   0.546   0.554   0.532   0.527   0.540   0.547   0.554   0.544   0.543   0.553   0.545   0.533   0.542   0.536   0.538   0.538   0.549   0.541   0.546   0.535   0.540   0.540   0.538   0.545   0.541   0.538   0.549   0.550
   170.36    0.536   0.534   0.539   0.532   0.525   0.524   0.524   0.529   0.523   0.527   0.528   0.531   0.530   0.518   0.521   0.537   0.535   0.537   0.529   0.540   0.535   0.539   0.548   0.544   0.537   0.531   0.542   0.557   0.550   0.550   0.548   0.537   0.528   0.530   0.553   0.556   0.554   0.546   0.543   0.547   0.555   0.558   0.545   0.538   0.537   0.536   0.553   0.543   0.536   0.549
   166.79    0.536   0.529   0.530   0.531   0.515   0.521   0.531   0.536   0.537   0.525   0.529   0.523   0.527   0.521   0.519   0.531   0.524   0.524   0.529   0.528   0.529   0.537   0.541   0.553   0.545   0.542   0.543   0.555   0.551   0.536   0.537   0.536   0.531   0.533   0.551   0.553   0.558   0.551   0.546   0.547   0.547   0.558   0.548   0.547   0.549   0.541   0.561   0.554   0.549   0.544
   163.21    0.530   0.529   0.527   0.533   0.527   0.524   0.536   0.522   0.524   0.531   0.519   0.528   0.520   0.531   0.541   0.533   0.523   0.532   0.537   0.529   0.531   0.534   0.543   0.546   0.543   0.549   0.548   0.562   0.542   0.535   0.543   0.534   0.538   0.535   0.541   0.550   0.557   0.550   0.557   0.545   0.551   0.550   0.543   0.546   0.560   0.565   0.570   0.555   0.550   0.545
   159.64    0.539   0.535   0.530   0.538   0.546   0.536   0.528   0.526   0.523   0.518   0.517   0.531   0.535   0.530   0.534   0.537   0.528   0.542   0.547   0.533   0.524   0.534   0.542   0.551   0.545   0.553   0.550   0.547   0.542   0.534   0.542   0.547   0.535   0.535   0.559   0.563   0.553   0.554   0.559   0.550   0.563   0.564   0.548   0.553   0.559   0.567   0.562   0.561   0.548   0.544
   156.07    0.545   0.546   0.539   0.535   0.549   0.527   0.522   0.532   0.525   0.520   0.522   0.530   0.526   0.522   0.528   0.536   0.531   0.538   0.528   0.535   0.531   0.525   0.540   0.550   0.543   0.553   0.551   0.543   0.545   0.542   0.531   0.544   0.549   0.550   0.567   0.560   0.555   0.559   0.553   0.563   0.564   0.564   0.565   0.555   0.563   0.552   0.553   0.549   0.549   0.545
   152.50    0.560   0.547   0.549   0.544   0.533   0.527   0.532   0.526   0.524   0.528   0.534   0.529   0.531   0.530   0.534   0.541   0.542   0.541   0.530   0.519   0.523   0.530   0.542   0.531   0.535   0.539   0.547   0.547   0.545   0.533   0.532   0.536   0.546   0.545   0.550   0.546   0.561   0.563   0.557   0.560   0.574   0.583   0.572   0.570   0.557   0.537   0.542   0.535   0.547   0.536
   148.93    0.542   0.544   0.552   0.556   0.554   0.519   0.516   0.516   0.525   0.538   0.532   0.524   0.535   0.537   0.537   0.539   0.537   0.532   0.536   0.534   0.525   0.536   0.534   0.536   0.521   0.530   0.543   0.539   0.538   0.540   0.528   0.531   0.541   0.536   0.553   0.555   0.555   0.554   0.552   0.555   0.563   0.568   0.579   0.571   0.562   0.539   0.532   0.542   0.543   0.540
   145.36    0.543   0.550   0.552   0.547   0.540   0.524   0.518   0.519   0.525   0.530   0.535   0.536   0.550   0.526   0.537   0.538   0.538   0.540   0.528   0.543   0.539   0.536   0.549   0.547   0.534   0.541   0.546   0.533   0.537   0.526   0.529   0.538   0.532   0.535   0.550   0.545   0.554   0.553   0.548   0.549   0.555   0.555   0.569   0.556   0.559   0.555   0.540   0.550   0.555   0.550
   141.79    0.547   0.547   0.544   0.550   0.541   0.532   0.517   0.529   0.521   0.532   0.531   0.530   0.532   0.514   0.526   0.535   0.539   0.536   0.539   0.535   0.543   0.553   0.545   0.539   0.537   0.534   0.537   0.540   0.528   0.534   0.540   0.545   0.547   0.540   0.539   0.538   0.537   0.536   0.545   0.551   0.541   0.539   0.550   0.550   0.558   0.559   0.560   0.555   0.546   0.541
   138.21    0.540   0.535   0.548   0.546   0.544   0.538   0.535   0.528   0.515   0.509   0.523   0.530   0.526   0.527   0.528   0.528   0.526   0.540   0.539   0.543   0.547   0.556   0.549   0.539   0.538   0.529   0.542   0.532   0.525   0.540   0.535   0.531   0.531   0.526   0.539   0.531   0.537   0.533   0.534   0.547   0.550   0.549   0.552   0.556   0.548   0.555   0.549   0.553   0.544   0.545
   134.64    0.552   0.544   0.537   0.536   0.542   0.533   0.538   0.528   0.522   0.520   0.517   0.523   0.534   0.531   0.532   0.537   0.532   0.534   0.534   0.546   0.546   0.546   0.535   0.540   0.537   0.549   0.535   0.529   0.525   0.533   0.527   0.525   0.524   0.523   0.530   0.530   0.526   0.525   0.537   0.541   0.543   0.555   0.556   0.549   0.545   0.555   0.556   0.547   0.553   0.539
   131.07    0.551   0.536   0.545   0.542   0.537   0.534   0.522   0.528   0.529   0.526   0.523   0.519   0.530   0.532   0.538   0.538   0.528   0.536   0.540   0.543   0.541   0.541   0.536   0.540   0.536   0.549   0.545   0.539   0.535   0.522   0.521   0.527   0.515   0.527   0.529   0.533   0.530   0.533   0.530   0.540   0.540   0.552   0.562   0.563   0.565   0.552   0.564   0.560   0.551   0.549
   127.50    0.551   0.550   0.546   0.538   0.525   0.520   0.525   0.520   0.523   0.516   0.516   0.514   0.524   0.536   0.532   0.525   0.527   0.533   0.540   0.556   0.540   0.535   0.541   0.542   0.546   0.544   0.553   0.544   0.525   0.526   0.510   0.520   0.514   0.528   0.533   0.527   0.530   0.535   0.535   0.540   0.537   0.551   0.556   0.566   0.555   0.550   0.547   0.542   0.535   0.548
   123.93    0.548   0.547   0.542   0.538   0.525   0.523   0.531   0.521   0.537   0.531   0.524   0.521   0.523   0.534   0.530   0.524   0.524   0.534   0.534   0.537   0.536   0.535   0.542   0.550   0.555   0.543   0.547   0.534   0.522   0.523   0.501   0.508   0.504   0.515   0.520   0.538   0.540   0.540   0.534   0.538   0.538   0.542   0.561   0.554   0.547   0.550   0.540   0.542   0.541   0.554
   120.36    0.540   0.538   0.543   0.549   0.538   0.537   0.525   0.527   0.534   0.522   0.518   0.530   0.534   0.542   0.527   0.528   0.536   0.540   0.544   0.549   0.539   0.548   0.543   0.553   0.552   0.550   0.544   0.540   0.522   0.528   0.521   0.510   0.508   0.512   0.526   0.536   0.535   0.537   0.536   0.546   0.541   0.540   0.545   0.554   0.539   0.531   0.541   0.529   0.541   0.559
   116.79    0.545   0.529   0.538   0.531   0.526   0.525   0.530   0.530   0.525   0.528   0.534   0.539   0.523   0.540   0.551   0.535   0.540   0.530   0.526   0.534   0.534   0.536   0.543   0.541   0.551   0.547   0.546   0.541   0.531   0.531   0.531   0.526   0.518   0.534   0.533   0.534   0.533   0.535   0.543   0.548   0.528   0.535   0.548   0.540   0.537   0.537   0.531   0.527   0.547   0.546
   113.21    0.549   0.539   0.545   0.532   0.532   0.531   0.542   0.532   0.527   0.524   0.530   0.541   0.544   0.545   0.541   0.537   0.535   0.539   0.537   0.531   0.533   0.541   0.542   0.535   0.536   0.538   0.535   0.537   0.543   0.535   0.534   0.536   0.537   0.533   0.526   0.530   0.529   0.536   0.543   0.542   0.541   0.532   0.543   0.533   0.539   0.539   0.525   0.524   0.549   0.544
   109.64    0.553   0.548   0.548   0.544   0.547   0.548   0.542   0.529   0.516   0.517   0.535   0.548   0.539   0.535   0.535   0.542   0.534   0.532   0.541   0.525   0.528   0.532   0.543   0.531   0.526   0.526   0.542   0.538   0.540   0.538   0.537   0.533   0.534   0.531   0.516   0.535   0.529   0.543   0.544   0.539   0.534   0.537   0.530   0.533   0.543   0.539   0.544   0.531   0.545   0.552
   106.07    0.553   0.556   0.545   0.555   0.550   0.547   0.535   0.526   0.522   0.528   0.532   0.534   0.538   0.530   0.534   0.529   0.525   0.522   0.526   0.543   0.531   0.527   0.523   0.528   0.532   0.531   0.535   0.541   0.536   0.537   0.527   0.528   0.538   0.532   0.535   0.545   0.545   0.544   0.551   0.537   0.545   0.537   0.542   0.539   0.538   0.545   0.543   0.538   0.540   0.548
   102.50    0.567   0.566   0.562   0.559   0.561   0.546   0.549   0.534   0.527   0.529   0.545   0.540   0.542   0.515   0.516   0.526   0.523   0.531   0.531   0.526   0.536   0.528   0.523   0.529   0.530   0.523   0.541   0.536   0.537   0.535   0.531   0.533   0.529   0.546   0.556   0.542   0.546   0.541   0.556   0.542   0.544   0.542   0.538   0.535   0.549   0.541   0.550   0.541   0.536   0.552
    98.93    0.547   0.550   0.551   0.554   0.554   0.547   0.552   0.533   0.523   0.527   0.535   0.531   0.529   0.526   0.512   0.520   0.514   0.538   0.541   0.523   0.515   0.516   0.527   0.525   0.521   0.522   0.538   0.545   0.539   0.535   0.535   0.527   0.535   0.543   0.545   0.551   0.554   0.550   0.553   0.555   0.545   0.531   0.530   0.538   0.545   0.547   0.545   0.546   0.553   0.561
    95.36    0.544   0.558   0.560   0.554   0.540   0.535   0.540   0.534   0.515   0.520   0.538   0.527   0.511   0.517   0.517   0.516   0.516   0.529   0.536   0.527   0.513   0.516   0.532   0.530   0.537   0.533   0.531   0.536   0.534   0.529   0.541   0.542   0.556   0.554   0.558   0.545   0.553   0.557   0.550   0.545   0.544   0.536   0.535   0.541   0.542   0.540   0.545   0.546   0.552   0.549
    91.79    0.543   0.552   0.554   0.548   0.552   0.532   0.543   0.534   0.534   0.543   0.528   0.528   0.523   0.532   0.519   0.511   0.509   0.528   0.517   0.529   0.518   0.514   0.512   0.527   0.530   0.527   0.531   0.528   0.535   0.528   0.546   0.537   0.546   0.555   0.538   0.536   0.555   0.555   0.544   0.550   0.537   0.550   0.543   0.535   0.536   0.540   0.547   0.549   0.556   0.557
    88.21    0.553   0.554   0.548   0.547   0.553   0.545   0.532   0.539   0.536   0.535   0.523   0.520   0.538   0.530   0.525   0.529   0.522   0.525   0.524   0.514   0.510   0.503   0.509   0.522   0.523   0.539   0.536   0.524   0.532   0.525   0.529   0.537   0.549   0.559   0.549   0.530   0.537   0.544   0.536   0.545   0.554   0.549   0.540   0.535   0.534   0.543   0.554   0.552   0.553   0.566
    84.64    0.547   0.554   0.551   0.557   0.551   0.544   0.527   0.521   0.541   0.539   0.527   0.538   0.528   0.547   0.541   0.536   0.531   0.532   0.520   0.516   0.516   0.505   0.512   0.521   0.531   0.531   0.520   0.515   0.527   0.524   0.525   0.533   0.551   0.554   0.547   0.539   0.525   0.537   0.541   0.545   0.538   0.554   0.545   0.538   0.540   0.538   0.553   0.555   0.558   0.564
    81.07    0.547   0.544   0.554   0.549   0.549   0.538   0.543   0.538   0.553   0.544   0.538   0.545   0.548   0.557   0.543   0.539   0.537   0.530   0.525   0.514   0.513   0.517   0.519   0.518   0.523   0.513   0.513   0.511   0.517   0.533   0.535   0.540   0.538   0.550   0.551   0.550   0.545   0.548   0.545   0.546   0.552   0.547   0.550   0.539   0.535   0.546   0.550   0.558   0.564   0.555
    77.50    0.556   0.533   0.530   0.542   0.546   0.542   0.543   0.549   0.540   0.544   0.534   0.544   0.544   0.561   0.560   0.558   0.548   0.531   0.522   0.518   0.514   0.518   0.517   0.516   0.525   0.524   0.520   0.518   0.524   0.529   0.543   0.534   0.534   0.542   0.534   0.540   0.548   0.542   0.536   0.540   0.550   0.550   0.556   0.543   0.545   0.548   0.551   0.552   0.565   0.561
    73.93    0.546   0.545   0.541   0.543   0.542   0.539   0.547   0.540   0.535   0.538   0.532   0.531   0.545   0.564   0.563   0.555   0.555   0.530   0.533   0.533   0.532   0.526   0.524   0.526   0.525   0.525   0.520   0.519   0.509   0.527   0.530   0.529   0.533   0.535   0.527   0.542   0.534   0.543   0.545   0.541   0.549   0.557   0.548   0.553   0.543   0.550   0.546   0.554   0.545   0.549
    70.36    0.546   0.547   0.536   0.557   0.548   0.534   0.539   0.542   0.532   0.542   0.543   0.544   0.543   0.549   0.548   0.552   0.558   0.550   0.530   0.530   0.527   0.540   0.526   0.536   0.527   0.524   0.527   0.524   0.511   0.532   0.534   0.529   0.539   0.543   0.536   0.546   0.542   0.541   0.539   0.528   0.539   0.544   0.545   0.545   0.549   0.550   0.549   0.554   0.543   0.535
    66.79    0.550   0.558   0.545   0.553   0.551   0.542   0.544   0.536   0.551   0.553   0.538   0.535   0.541   0.547   0.555   0.552   0.563   0.548   0.543   0.539   0.536   0.534   0.536   0.537   0.538   0.531   0.532   0.530   0.528   0.534   0.544   0.553   0.546   0.545   0.535   0.535   0.526   0.530   0.528   0.538   0.546   0.546   0.545   0.545   0.553   0.542   0.548   0.547   0.539   0.541
    63.21    0.551   0.554   0.548   0.548   0.544   0.550   0.559   0.543   0.537   0.538   0.533   0.546   0.544   0.553   0.554   0.569   0.558   0.553   0.544   0.545   0.542   0.540   0.548   0.539   0.543   0.545   0.536   0.537   0.531   0.541   0.544   0.538   0.535   0.543   0.531   0.523   0.535   0.534   0.526   0.531   0.533   0.536   0.536   0.547   0.534   0.542   0.543   0.536   0.549   0.536
    59.64    0.558   0.557   0.554   0.545   0.551   0.554   0.545   0.550   0.549   0.531   0.542   0.536   0.547   0.549   0.556   0.564   0.566   0.551   0.555   0.556   0.559   0.551   0.531   0.537   0.534   0.537   0.529   0.537   0.531   0.545   0.546   0.541   0.547   0.536   0.527   0.531   0.537   0.534   0.532   0.533   0.532   0.515   0.532   0.551   0.549   0.547   0.532   0.536   0.544   0.529
    56.07    0.555   0.555   0.554   0.551   0.539   0.549   0.545   0.550   0.553   0.544   0.554   0.556   0.551   0.538   0.553   0.549   0.567   0.553   0.558   0.557   0.558   0.555   0.539   0.542   0.540   0.543   0.533   0.538   0.529   0.535   0.547   0.547   0.546   0.532   0.537   0.537   0.539   0.536   0.532   0.521   0.518   0.518   0.527   0.541   0.544   0.533   0.544   0.539   0.540   0.527
    52.50    0.557   0.555   0.548   0.547   0.561   0.553   0.550   0.555   0.567   0.551   0.554   0.541   0.543   0.542   0.552   0.550   0.545   0.552   0.559   0.559   0.558   0.544   0.544   0.534   0.538   0.530   0.536   0.523   0.529   0.530   0.545   0.545   0.540   0.543   0.541   0.539   0.539   0.527   0.526   0.515   0.515   0.508   0.517   0.525   0.538   0.532   0.537   0.543   0.544   0.536
    48.93    0.551   0.554   0.554   0.555   0.565   0.566   0.567   0.569   0.559   0.564   0.573   0.548   0.548   0.537   0.543   0.547   0.541   0.539   0.543   0.554   0.555   0.546   0.541   0.531   0.538   0.542   0.547   0.526   0.541   0.538   0.548   0.544   0.528   0.541   0.531   0.534   0.536   0.526   0.519   0.524   0.512   0.509   0.517   0.524   0.530   0.539   0.548   0.544   0.542   0.531
    45.36    0.543   0.551   0.545   0.553   0.562   0.567   0.582   0.569   0.556   0.559   0.555   0.549   0.535   0.528   0.536   0.535   0.522   0.530   0.540   0.554   0.547   0.540   0.539   0.534   0.542   0.531   0.536   0.545   0.543   0.543   0.534   0.531   0.522   0.527   0.538   0.532   0.532   0.532   0.515   0.522   0.525   0.531   0.527   0.519   0.535   0.543   0.544   0.541   0.544   0.528
    41.79    0.553   0.546   0.559   0.549   0.551   0.555   0.557   0.559   0.555   0.560   0.541   0.535   0.527   0.523   0.525   0.533   0.526   0.525   0.535   0.546   0.550   0.549   0.546   0.541   0.534   0.524   0.533   0.533   0.542   0.533   0.552   0.540   0.517   0.531   0.535   0.541   0.541   0.532   0.518   0.521   0.530   0.533   0.531   0.533   0.531   0.539   0.535   0.537   0.539   0.530
    38.21    0.554   0.558   0.555   0.553   0.549   0.561   0.545   0.550   0.542   0.543   0.542   0.550   0.553   0.535   0.535   0.531   0.529   0.523   0.538   0.545   0.549   0.535   0.539   0.533   0.534   0.516   0.518   0.526   0.534   0.529   0.541   0.530   0.518   0.520   0.525   0.525   0.534   0.542   0.539   0.526   0.529   0.535   0.520   0.532   0.535   0.540   0.526   0.529   0.526   0.531
    34.64    0.553   0.560   0.567   0.558   0.564   0.561   0.533   0.541   0.532   0.538   0.536   0.543   0.536   0.528   0.540   0.540   0.533   0.524   0.527   0.542   0.538   0.550   0.529   0.527   0.523   0.532   0.530   0.534   0.524   0.543   0.537   0.538   0.513   0.513   0.535   0.524   0.526   0.541   0.531   0.540   0.530   0.515   0.525   0.534   0.526   0.535   0.524   0.526   0.544   0.536
    31.07    0.552   0.549   0.555   0.558   0.563   0.559   0.549   0.537   0.534   0.524   0.541   0.541   0.544   0.539   0.535   0.537   0.531   0.525   0.533   0.538   0.547   0.543   0.526   0.531   0.521   0.532   0.543   0.535   0.537   0.533   0.534   0.519   0.518   0.523   0.531   0.537   0.542   0.531   0.544   0.534   0.519   0.513   0.532   0.536   0.532   0.532   0.535   0.534   0.532   0.534
    27.50    0.547   0.555   0.561   0.554   0.546   0.548   0.560   0.546   0.525   0.528   0.541   0.537   0.545   0.540   0.538   0.544   0.545   0.526   0.530   0.539   0.543   0.533   0.533   0.534   0.523   0.536   0.541   0.544   0.539   0.533   0.538   0.534   0.518   0.531   0.538   0.538   0.538   0.532   0.531   0.530   0.520   0.532   0.542   0.541   0.537   0.535   0.529   0.527   0.531   0.525
    23.93    0.553   0.549   0.556   0.556   0.545   0.540   0.545   0.527   0.520   0.520   0.536   0.543   0.539   0.540   0.532   0.550   0.532   0.530   0.519   0.543   0.535   0.536   0.531   0.525   0.535   0.547   0.556   0.545   0.542   0.540   0.536   0.532   0.538   0.538   0.543   0.531   0.539   0.532   0.540   0.535   0.536   0.537   0.544   0.545   0.546   0.532   0.516   0.520   0.525   0.517
    20.36    0.547   0.547   0.538   0.544   0.535   0.537   0.541   0.534   0.522   0.523   0.536   0.539   0.544   0.540   0.544   0.546   0.558   0.537   0.527   0.541   0.539   0.547   0.534   0.530   0.542   0.555   0.557   0.567   0.550   0.538   0.538   0.541   0.550   0.537   0.546   0.544   0.536   0.531   0.543   0.535   0.535   0.536   0.528   0.527   0.537   0.525   0.515   0.527   0.536   0.519
    16.79    0.543   0.538   0.539   0.544   0.547   0.540   0.535   0.532   0.538   0.539   0.539   0.550   0.551   0.537   0.546   0.537   0.553   0.540   0.539   0.534   0.531   0.540   0.546   0.545   0.536   0.546   0.569   0.577   0.567   0.556   0.540   0.544   0.542   0.538   0.540   0.546   0.550   0.540   0.537   0.530   0.538   0.530   0.515   0.512   0.526   0.517   0.516   0.521   0.528   0.532
    13.21    0.535   0.533   0.528   0.540   0.548   0.547   0.534   0.534   0.541   0.538   0.545   0.544   0.548   0.540   0.537   0.543   0.540   0.543   0.531   0.529   0.535   0.543   0.549   0.547   0.533   0.553   0.571   0.562   0.562   0.557   0.541   0.538   0.547   0.539   0.533   0.537   0.537   0.544   0.534   0.529   0.532   0.520   0.514   0.519   0.525   0.515   0.519   0.520   0.526   0.533
     9.64    0.537   0.529   0.537   0.536   0.545   0.532   0.529   0.541   0.539   0.540   0.541   0.531   0.537   0.542   0.545   0.540   0.539   0.544   0.538   0.528   0.536   0.545   0.541   0.549   0.543   0.543   0.553   0.552   0.557   0.539   0.541   0.533   0.526   0.537   0.528   0.521   0.525   0.537   0.549   0.544   0.538   0.535   0.526   0.516   0.513   0.527   0.529   0.534   0.540   0.536
     6.07    0.548   0.544   0.545   0.529   0.526   0.530   0.529   0.537   0.541   0.547   0.536   0.531   0.530   0.546   0.547   0.545   0.550   0.540   0.543   0.537   0.539   0.528   0.542   0.551   0.538   0.549   0.545   0.542   0.542   0.535   0.533   0.546   0.542   0.536   0.529   0.536   0.533   0.531   0.541   0.543   0.544   0.538   0.527   0.532   0.539   0.541   0.538   0.526   0.528   0.532
     2.50    0.539   0.544   0.539   0.530   0.533   0.531   0.521   0.533   0.532   0.545   0.532   0.531   0.535   0.533   0.537   0.534   0.544   0.544   0.543   0.532   0.535   0.529   0.542   0.542   0.544   0.550   0.552   0.542   0.530   0.535   0.531   0.543   0.542   0.530   0.530   0.531   0.530   0.534   0.541   0.539   0.545   0.533   0.533   0.534   0.530   0.545   0.541   0.532   0.524   0.531

   Mean standard deviation across all grid points:
      u component:    1.015 m/s
      v component:    0.885 m/s
      w component:    0.539 m/s


U-component (X) statistics from the interpolated hub point:

   Mean =  12.9996 m/s
   TI   =   7.7306 %


Processing complete.  13844 CPU seconds used.
